@<TRIPOS>MOLECULE
Molecule 1
56406 63674
SMALL
USER_CHARGES


@<TRIPOS>ATOM
1 C 72.1025 -7.58486 25.5679 C 0.0 **** 0.0
2 C 71.6087 -6.96524 26.754 C 0.0 **** 0.0
3 C 71.8667 -5.59034 26.9401 C 0.0 **** 0.0
4 C 72.7786 -4.93812 26.0641 C 0.0 **** 0.0
5 C 73.5363 -5.6919 25.1482 C 0.0 **** 0.0
6 C 73.1365 -6.99611 24.8332 C 0.0 **** 0.0
7 C 72.9048 -3.44211 26.1122 C 0.0 **** 0.0
8 C 71.9746 -2.71003 27.0365 C 0.0 **** 0.0
9 C 71.2976 -3.41269 28.0616 C 0.0 **** 0.0
10 C 71.2568 -4.91798 28.1139 C 0.0 **** 0.0
11 C 70.5547 -2.73005 29.0647 C 0.0 **** 0.0
12 C 70.5539 -1.30038 29.0216 C 0.0 **** 0.0
13 C 71.0436 -0.618489 27.9053 C 0.0 **** 0.0
14 C 71.8384 -1.31473 26.9629 C 0.0 **** 0.0
15 C 72.4827 -0.551013 25.935 C 0.0 **** 0.0
16 C 72.1989 0.783077 25.687 C 0.0 **** 0.0
17 C 71.4484 1.48621 26.7104 C 0.0 **** 0.0
18 C 70.7799 0.733337 27.7007 C 0.0 **** 0.0
19 C 71.3451 3.00373 26.7501 C 0.0 **** 0.0
20 C 72.1926 3.65838 25.6511 C 0.0 **** 0.0
21 C 72.3963 2.86386 24.3836 C 0.0 **** 0.0
22 C 72.5582 1.44796 24.4656 C 0.0 **** 0.0
23 C 73.5494 4.17954 26.0731 C 0.0 **** 0.0
24 C 74.0918 3.42654 27.32 C 0.0 **** 0.0
25 C 73.2444 3.59848 28.4954 C 0.0 **** 0.0
26 C 71.7233 3.58375 28.1477 C 0.0 **** 0.0
27 C 72.9642 0.77263 23.2565 C 0.0 **** 0.0
28 C 72.9698 1.48622 22.0062 C 0.0 **** 0.0
29 C 72.7163 2.89195 21.9499 C 0.0 **** 0.0
30 C 72.4939 3.58656 23.191 C 0.0 **** 0.0
31 C 72.6052 3.545 20.6354 C 0.0 **** 0.0
32 C 72.89 2.84828 19.3717 C 0.0 **** 0.0
33 C 73.1958 1.48495 19.4148 C 0.0 **** 0.0
34 C 73.1246 0.739088 20.709 C 0.0 **** 0.0
35 C 73.2499 0.74227 18.1053 C 0.0 **** 0.0
36 C 73.9938 1.53756 17.0328 C 0.0 **** 0.0
37 C 73.5588 2.96962 17.0016 C 0.0 **** 0.0
38 C 72.9024 3.52818 18.1407 C 0.0 **** 0.0
39 N 72.3268 4.75157 18.035 N 0.0 **** 0.0
40 C 72.3994 5.5142 16.9452 C 0.0 **** 0.0
41 C 73.1557 5.03153 15.8273 C 0.0 **** 0.0
42 C 73.7716 3.76575 15.871 C 0.0 **** 0.0
43 C 74.6035 3.22468 14.7219 C 0.0 **** 0.0
44 C 74.6214 4.125 13.4857 C 0.0 **** 0.0
45 C 74.5664 5.61187 13.867 C 0.0 **** 0.0
46 C 73.2696 5.94749 14.6283 C 0.0 **** 0.0
47 C 73.3183 7.42411 15.1061 C 0.0 **** 0.0
48 C 72.2317 7.76379 16.0791 C 0.0 **** 0.0
49 C 71.7841 6.76375 16.943 C 0.0 **** 0.0
50 C 70.8722 7.04323 17.9007 C 0.0 **** 0.0
51 C 70.3516 8.29734 18.0515 C 0.0 **** 0.0
52 C 70.7726 9.39964 17.2437 C 0.0 **** 0.0
53 C 71.7818 9.13709 16.2497 C 0.0 **** 0.0
54 C 73.6786 -7.67023 23.5772 C 0.0 **** 0.0
55 C 74.7444 -8.72935 23.9114 C 0.0 **** 0.0
56 C 71.4542 -8.87702 25.0489 C 0.0 **** 0.0
57 C 74.7379 -5.03663 24.5134 C 0.0 **** 0.0
58 C 70.986 -7.8092 27.8337 C 0.0 **** 0.0
59 C 69.8031 -3.54583 30.1467 C 0.0 **** 0.0
60 C 70.1999 -0.511521 30.2944 C 0.0 **** 0.0
61 O 69.6724 1.3082 28.3286 O 0.0 **** 0.0
62 C 73.5139 4.87695 29.3283 C 0.0 **** 0.0
63 C 75.5561 3.82357 27.5686 C 0.0 **** 0.0
64 O 72.5881 4.97957 23.2463 O 0.0 **** 0.0
65 O 73.1502 -0.575407 23.2083 O 0.0 **** 0.0
66 O 73.1136 -0.499086 20.655 O 0.0 **** 0.0
67 O 72.2605 4.71405 20.613 O 0.0 **** 0.0
68 C 72.4684 10.3243 15.573 C 0.0 **** 0.0
69 C 70.1759 10.7773 17.5159 C 0.0 **** 0.0
70 H 73.939 -3.1791 26.4458 H 0.0 **** 0.0
71 H 72.7041 -3.09371 25.0603 H 0.0 **** 0.0
72 H 70.194 -5.25797 28.1872 H 0.0 **** 0.0
73 H 71.8111 -5.20771 29.0661 H 0.0 **** 0.0
74 H 73.257 -1.00314 25.362 H 0.0 **** 0.0
75 H 74.3204 4.04058 25.3119 H 0.0 **** 0.0
76 H 73.5838 5.30296 26.2363 H 0.0 **** 0.0
77 H 74.1011 2.36869 27.0925 H 0.0 **** 0.0
78 H 73.4161 2.75897 29.2194 H 0.0 **** 0.0
79 H 71.4433 4.6411 28.1175 H 0.0 **** 0.0
80 H 71.1361 3.12448 28.9781 H 0.0 **** 0.0
81 H 73.752 -0.248702 18.272 H 0.0 **** 0.0
82 H 72.2293 0.573401 17.7534 H 0.0 **** 0.0
83 H 73.841 1.02335 16.0683 H 0.0 **** 0.0
84 H 75.0612 1.50198 17.2783 H 0.0 **** 0.0
85 H 75.6215 3.07717 15.1063 H 0.0 **** 0.0
86 H 74.307 2.19951 14.4028 H 0.0 **** 0.0
87 H 73.7825 3.85348 12.7892 H 0.0 **** 0.0
88 H 75.5412 3.96417 12.8793 H 0.0 **** 0.0
89 H 74.5577 6.22391 12.944 H 0.0 **** 0.0
90 H 75.4915 5.84004 14.4429 H 0.0 **** 0.0
91 H 72.3651 5.84403 13.9683 H 0.0 **** 0.0
92 H 74.2761 7.7083 15.5879 H 0.0 **** 0.0
93 H 73.2689 8.04332 14.1728 H 0.0 **** 0.0
94 H 70.6002 6.273 18.6066 H 0.0 **** 0.0
95 H 69.5978 8.42726 18.814 H 0.0 **** 0.0
96 H 74.0708 -6.94629 22.832 H 0.0 **** 0.0
97 H 72.8626 -8.17951 23.0776 H 0.0 **** 0.0
98 H 74.4291 -9.33115 24.7832 H 0.0 **** 0.0
99 H 75.7289 -8.28478 24.0933 H 0.0 **** 0.0
100 H 74.922 -9.41079 23.1058 H 0.0 **** 0.0
101 H 70.7383 -9.30609 25.7343 H 0.0 **** 0.0
102 H 72.2347 -9.6471 24.8992 H 0.0 **** 0.0
103 H 70.9135 -8.62635 24.0946 H 0.0 **** 0.0
104 H 74.4293 -4.36414 23.6801 H 0.0 **** 0.0
105 H 75.511 -5.78214 24.2166 H 0.0 **** 0.0
106 H 75.2887 -4.40474 25.2517 H 0.0 **** 0.0
107 H 71.5013 -7.57169 28.7718 H 0.0 **** 0.0
108 H 71.232 -8.84617 27.7044 H 0.0 **** 0.0
109 H 69.9014 -7.6212 27.8179 H 0.0 **** 0.0
110 H 69.2853 -2.82852 30.7507 H 0.0 **** 0.0
111 H 70.529 -4.1191 30.7999 H 0.0 **** 0.0
112 H 68.981 -4.1525 29.7346 H 0.0 **** 0.0
113 H 70.734 0.454067 30.383 H 0.0 **** 0.0
114 H 70.5897 -1.04538 31.1881 H 0.0 **** 0.0
115 H 69.0382 -0.378049 30.326 H 0.0 **** 0.0
116 H 69.1821 2.07613 27.8576 H 0.0 **** 0.0
117 H 74.5255 4.79567 29.8149 H 0.0 **** 0.0
118 H 72.7813 5.03351 30.0828 H 0.0 **** 0.0
119 H 73.5246 5.81714 28.7008 H 0.0 **** 0.0
120 H 76.2884 3.48671 26.78 H 0.0 **** 0.0
121 H 75.8644 3.23503 28.4931 H 0.0 **** 0.0
122 H 75.7289 4.92326 27.6857 H 0.0 **** 0.0
123 H 73.2943 5.38116 22.6395 H 0.0 **** 0.0
124 H 74.0308 -0.796566 22.7535 H 0.0 **** 0.0
125 H 73.4648 10.0602 15.2668 H 0.0 **** 0.0
126 H 72.621 11.2014 16.2349 H 0.0 **** 0.0
127 H 71.924 10.5909 14.6473 H 0.0 **** 0.0
128 H 70.7273 11.3098 18.347 H 0.0 **** 0.0
129 H 69.1296 10.635 17.8297 H 0.0 **** 0.0
130 H 70.2232 11.3756 16.5423 H 0.0 **** 0.0
131 C 62.0447 9.87233 54.995 C 0.0 **** 0.0
132 C 62.6737 10.0607 53.7442 C 0.0 **** 0.0
133 C 63.5194 9.05343 53.2376 C 0.0 **** 0.0
134 C 63.7294 7.87512 53.9482 C 0.0 **** 0.0
135 C 63.1907 7.72688 55.247 C 0.0 **** 0.0
136 C 62.2744 8.69009 55.7785 C 0.0 **** 0.0
137 C 64.5242 6.70912 53.3247 C 0.0 **** 0.0
138 C 65.2024 6.90948 51.9927 C 0.0 **** 0.0
139 C 64.9809 8.09144 51.2866 C 0.0 **** 0.0
140 C 64.0808 9.1703 51.8219 C 0.0 **** 0.0
141 C 65.6066 8.34069 50.0262 C 0.0 **** 0.0
142 C 66.4848 7.35469 49.4974 C 0.0 **** 0.0
143 C 66.5116 6.07845 50.083 C 0.0 **** 0.0
144 C 66.0157 5.91066 51.4192 C 0.0 **** 0.0
145 C 66.1797 4.62307 52.054 C 0.0 **** 0.0
146 C 66.8574 3.56584 51.4074 C 0.0 **** 0.0
147 C 67.4645 3.86419 50.194 C 0.0 **** 0.0
148 C 67.0927 4.97793 49.4449 C 0.0 **** 0.0
149 C 68.6353 3.03002 49.6791 C 0.0 **** 0.0
150 C 69.0184 1.80547 50.5384 C 0.0 **** 0.0
151 C 68.0041 1.37972 51.5251 C 0.0 **** 0.0
152 C 66.9458 2.27514 51.9836 C 0.0 **** 0.0
153 C 70.4715 1.90074 51.1364 C 0.0 **** 0.0
154 C 70.7425 3.32905 51.5746 C 0.0 **** 0.0
155 C 70.7756 4.32901 50.4423 C 0.0 **** 0.0
156 C 69.8868 3.83662 49.2869 C 0.0 **** 0.0
157 C 65.965 1.78933 52.9049 C 0.0 **** 0.0
158 C 66.257 0.58711 53.6059 C 0.0 **** 0.0
159 C 67.293 -0.281726 53.1401 C 0.0 **** 0.0
160 C 68.0898 0.081882 52.0411 C 0.0 **** 0.0
161 C 67.6261 -1.48115 53.9604 C 0.0 **** 0.0
162 C 67.2226 -1.55142 55.3718 C 0.0 **** 0.0
163 C 66.0917 -0.826363 55.7956 C 0.0 **** 0.0
164 C 65.5523 0.222398 54.8691 C 0.0 **** 0.0
165 C 65.4167 -1.21471 57.1045 C 0.0 **** 0.0
166 C 66.4732 -1.53828 58.1729 C 0.0 **** 0.0
167 C 67.636 -2.40859 57.6603 C 0.0 **** 0.0
168 C 67.9693 -2.32675 56.2773 C 0.0 **** 0.0
169 N 69.1634 -2.8833 55.8735 N 0.0 **** 0.0
170 C 70.0073 -3.57563 56.6704 C 0.0 **** 0.0
171 C 69.6786 -3.7245 58.0099 C 0.0 **** 0.0
172 C 68.4858 -3.17624 58.5498 C 0.0 **** 0.0
173 C 68.2253 -3.20833 60.0348 C 0.0 **** 0.0
174 C 68.8973 -4.4502 60.6724 C 0.0 **** 0.0
175 C 70.3879 -4.37569 60.3332 C 0.0 **** 0.0
176 C 70.5839 -4.58515 58.8444 C 0.0 **** 0.0
177 C 72.0613 -4.40843 58.5203 C 0.0 **** 0.0
178 C 72.2565 -4.52207 57.0212 C 0.0 **** 0.0
179 C 71.2118 -4.10512 56.1425 C 0.0 **** 0.0
180 C 71.3475 -4.18202 54.763 C 0.0 **** 0.0
181 C 72.5878 -4.56156 54.2335 C 0.0 **** 0.0
182 C 73.6986 -4.76407 55.0828 C 0.0 **** 0.0
183 C 73.5415 -4.71649 56.4597 C 0.0 **** 0.0
184 C 61.6097 8.56781 57.1458 C 0.0 **** 0.0
185 C 62.23 9.42315 58.2492 C 0.0 **** 0.0
186 C 61.1147 10.9412 55.5384 C 0.0 **** 0.0
187 C 63.7248 6.60712 56.1237 C 0.0 **** 0.0
188 C 62.4096 11.3099 52.9036 C 0.0 **** 0.0
189 C 65.4287 9.65495 49.3308 C 0.0 **** 0.0
190 C 67.4817 7.65488 48.4228 C 0.0 **** 0.0
191 O 67.3308 5.02592 48.0528 O 0.0 **** 0.0
192 C 72.1809 4.62317 49.8997 C 0.0 **** 0.0
193 C 71.9582 3.3424 52.5896 C 0.0 **** 0.0
194 O 69.0839 -0.79815 51.523 O 0.0 **** 0.0
195 O 64.7649 2.46602 53.0782 O 0.0 **** 0.0
196 O 64.4611 0.709022 55.1484 O 0.0 **** 0.0
197 O 68.0926 -2.48322 53.4308 O 0.0 **** 0.0
198 C 74.7616 -4.94471 57.3619 C 0.0 **** 0.0
199 C 75.1031 -4.84084 54.4429 C 0.0 **** 0.0
200 H 65.3039 6.38041 53.9831 H 0.0 **** 0.0
201 H 63.8084 5.87914 53.2183 H 0.0 **** 0.0
202 H 63.1876 9.15579 51.1739 H 0.0 **** 0.0
203 H 64.5759 10.155 51.741 H 0.0 **** 0.0
204 H 65.8512 4.506 53.095 H 0.0 **** 0.0
205 H 70.5485 1.22304 52.0108 H 0.0 **** 0.0
206 H 71.2239 1.52939 50.3989 H 0.0 **** 0.0
207 H 69.8084 3.56609 52.1845 H 0.0 **** 0.0
208 H 70.3948 5.27448 50.8971 H 0.0 **** 0.0
209 H 70.4544 3.12723 48.6689 H 0.0 **** 0.0
210 H 69.6712 4.74175 48.6414 H 0.0 **** 0.0
211 H 64.7003 -0.457315 57.4705 H 0.0 **** 0.0
212 H 64.8865 -2.12401 56.8343 H 0.0 **** 0.0
213 H 65.9151 -2.05706 59.0232 H 0.0 **** 0.0
214 H 66.9863 -0.637522 58.6064 H 0.0 **** 0.0
215 H 68.6743 -2.24152 60.4261 H 0.0 **** 0.0
216 H 67.142 -3.19787 60.2725 H 0.0 **** 0.0
217 H 68.422 -5.37233 60.2345 H 0.0 **** 0.0
218 H 68.7579 -4.41592 61.7512 H 0.0 **** 0.0
219 H 70.8568 -5.24086 60.8462 H 0.0 **** 0.0
220 H 70.8166 -3.43801 60.7419 H 0.0 **** 0.0
221 H 70.3839 -5.61138 58.6254 H 0.0 **** 0.0
222 H 72.4325 -3.38123 58.7673 H 0.0 **** 0.0
223 H 72.5828 -5.23987 59.0208 H 0.0 **** 0.0
224 H 70.5439 -3.92589 54.0386 H 0.0 **** 0.0
225 H 72.7114 -4.61674 53.2066 H 0.0 **** 0.0
226 H 61.5397 7.54225 57.5253 H 0.0 **** 0.0
227 H 60.5217 8.7634 57.0148 H 0.0 **** 0.0
228 H 62.1905 10.54 58.0645 H 0.0 **** 0.0
229 H 63.3354 9.19013 58.2672 H 0.0 **** 0.0
230 H 61.774 9.20021 59.2069 H 0.0 **** 0.0
231 H 60.7361 10.7965 56.5651 H 0.0 **** 0.0
232 H 60.2383 10.9923 54.9208 H 0.0 **** 0.0
233 H 61.6393 11.8908 55.6071 H 0.0 **** 0.0
234 H 64.8381 6.70426 56.1281 H 0.0 **** 0.0
235 H 63.5331 5.59784 55.7118 H 0.0 **** 0.0
236 H 63.4259 6.69599 57.1777 H 0.0 **** 0.0
237 H 62.0818 11.0992 51.8466 H 0.0 **** 0.0
238 H 63.3516 11.9316 52.8219 H 0.0 **** 0.0
239 H 61.571 11.9322 53.2877 H 0.0 **** 0.0
240 H 65.982 10.4918 49.8132 H 0.0 **** 0.0
241 H 64.3338 9.88046 49.3228 H 0.0 **** 0.0
242 H 65.8228 9.59364 48.2971 H 0.0 **** 0.0
243 H 68.4534 7.14164 48.6666 H 0.0 **** 0.0
244 H 67.7329 8.71886 48.3221 H 0.0 **** 0.0
245 H 67.1095 7.24006 47.4397 H 0.0 **** 0.0
246 H 67.4029 4.10184 47.6304 H 0.0 **** 0.0
247 H 72.815 5.29905 50.5495 H 0.0 **** 0.0
248 H 72.0816 5.18945 48.9471 H 0.0 **** 0.0
249 H 72.6845 3.64362 49.72 H 0.0 **** 0.0
250 H 71.7181 2.76347 53.5073 H 0.0 **** 0.0
251 H 72.2153 4.39099 52.7983 H 0.0 **** 0.0
252 H 72.787 2.8418 52.1137 H 0.0 **** 0.0
253 H 69.6155 -1.26273 52.2351 H 0.0 **** 0.0
254 H 63.9295 1.91468 53.3158 H 0.0 **** 0.0
255 H 74.6227 -4.76027 58.4177 H 0.0 **** 0.0
256 H 75.655 -4.38988 56.9987 H 0.0 **** 0.0
257 H 75.031 -6.04087 57.2274 H 0.0 **** 0.0
258 H 75.665 -3.96295 54.7937 H 0.0 **** 0.0
259 H 74.9966 -4.81745 53.3459 H 0.0 **** 0.0
260 H 75.626 -5.74287 54.8081 H 0.0 **** 0.0
261 C 20.1743 85.9684 46.9738 C 0.0 **** 0.0
262 C 21.2804 85.0735 47.0902 C 0.0 **** 0.0
263 C 22.342 85.4383 47.9535 C 0.0 **** 0.0
264 C 22.2845 86.6126 48.7471 C 0.0 **** 0.0
265 C 21.1334 87.4908 48.6672 C 0.0 **** 0.0
266 C 20.0857 87.1816 47.7474 C 0.0 **** 0.0
267 C 23.3344 86.8913 49.8052 C 0.0 **** 0.0
268 C 24.4313 85.9019 50.0323 C 0.0 **** 0.0
269 C 24.5648 84.7772 49.1726 C 0.0 **** 0.0
270 C 23.522 84.4856 48.1023 C 0.0 **** 0.0
271 C 25.7068 83.9567 49.2768 C 0.0 **** 0.0
272 C 26.6029 84.1821 50.3457 C 0.0 **** 0.0
273 C 26.2998 85.0859 51.4096 C 0.0 **** 0.0
274 C 25.2594 85.9948 51.2364 C 0.0 **** 0.0
275 C 25.0956 87.0276 52.2294 C 0.0 **** 0.0
276 C 25.9403 87.0725 53.4014 C 0.0 **** 0.0
277 C 27.0289 86.1324 53.4797 C 0.0 **** 0.0
278 C 26.9574 84.9916 52.6494 C 0.0 **** 0.0
279 C 28.166 86.2964 54.5192 C 0.0 **** 0.0
280 C 28.1782 87.7611 55.0329 C 0.0 **** 0.0
281 C 26.8137 88.2703 55.3562 C 0.0 **** 0.0
282 C 25.7091 88.0129 54.4621 C 0.0 **** 0.0
283 C 28.9063 88.6455 54.024 C 0.0 **** 0.0
284 C 29.3047 88.0183 52.6592 C 0.0 **** 0.0
285 C 30.0883 86.7395 52.817 C 0.0 **** 0.0
286 C 29.5777 85.9184 54.095 C 0.0 **** 0.0
287 C 24.4513 88.5785 54.7718 C 0.0 **** 0.0
288 C 24.3616 89.5824 55.7655 C 0.0 **** 0.0
289 C 25.4515 89.8815 56.6077 C 0.0 **** 0.0
290 C 26.663 89.1469 56.4445 C 0.0 **** 0.0
291 C 25.2678 90.957 57.6304 C 0.0 **** 0.0
292 C 24.3458 92.104 57.397 C 0.0 **** 0.0
293 C 23.3115 91.8804 56.5068 C 0.0 **** 0.0
294 C 23.2552 90.6157 55.6902 C 0.0 **** 0.0
295 C 22.2637 92.9486 56.306 C 0.0 **** 0.0
296 C 22.0989 93.9889 57.4642 C 0.0 **** 0.0
297 C 23.4128 94.2369 58.1626 C 0.0 **** 0.0
298 C 24.4668 93.3257 58.135 C 0.0 **** 0.0
299 N 25.5963 93.5733 58.8883 N 0.0 **** 0.0
300 C 25.7572 94.6668 59.6783 C 0.0 **** 0.0
301 C 24.6613 95.5611 59.7732 C 0.0 **** 0.0
302 C 23.5059 95.351 59.0078 C 0.0 **** 0.0
303 C 22.3647 96.3727 59.0115 C 0.0 **** 0.0
304 C 22.2851 97.2368 60.261 C 0.0 **** 0.0
305 C 23.6944 97.7841 60.5771 C 0.0 **** 0.0
306 C 24.6367 96.6283 60.8601 C 0.0 **** 0.0
307 C 26.0733 97.0813 61.2378 C 0.0 **** 0.0
308 C 27.0794 95.9581 61.3446 C 0.0 **** 0.0
309 C 26.926 94.8284 60.4548 C 0.0 **** 0.0
310 C 27.9938 93.898 60.3742 C 0.0 **** 0.0
311 C 29.2058 94.1518 61.0211 C 0.0 **** 0.0
312 C 29.36 95.223 61.904 C 0.0 **** 0.0
313 C 28.2927 96.0822 62.0983 C 0.0 **** 0.0
314 C 18.7974 88.0161 47.826 C 0.0 **** 0.0
315 C 18.7892 89.1094 46.7794 C 0.0 **** 0.0
316 C 19.0672 85.588 45.9857 C 0.0 **** 0.0
317 C 21.0684 88.8093 49.459 C 0.0 **** 0.0
318 C 21.2317 83.7415 46.2942 C 0.0 **** 0.0
319 C 25.946 82.7942 48.2997 C 0.0 **** 0.0
320 C 27.9246 83.4934 50.3087 C 0.0 **** 0.0
321 O 27.5362 83.7733 53.0451 O 0.0 **** 0.0
322 C 31.5913 87.0185 52.9153 C 0.0 **** 0.0
323 C 30.0274 89.1257 51.828 C 0.0 **** 0.0
324 O 27.83 89.3226 57.2154 O 0.0 **** 0.0
325 O 23.2961 88.195 54.1111 O 0.0 **** 0.0
326 O 22.2632 90.4357 54.9989 O 0.0 **** 0.0
327 O 25.9015 90.8909 58.6451 O 0.0 **** 0.0
328 C 28.3053 97.0693 63.2196 C 0.0 **** 0.0
329 C 30.6902 95.4361 62.5959 C 0.0 **** 0.0
330 H 23.8978 87.832 49.579 H 0.0 **** 0.0
331 H 22.7638 86.9455 50.7481 H 0.0 **** 0.0
332 H 23.1358 83.4739 48.3313 H 0.0 **** 0.0
333 H 24.0216 84.4931 47.0816 H 0.0 **** 0.0
334 H 24.3273 87.7401 52.0322 H 0.0 **** 0.0
335 H 28.2662 89.5071 53.7254 H 0.0 **** 0.0
336 H 29.7866 89.075 54.5219 H 0.0 **** 0.0
337 H 28.3911 87.816 52.1284 H 0.0 **** 0.0
338 H 29.9049 86.1015 51.9218 H 0.0 **** 0.0
339 H 30.2483 86.0431 54.9674 H 0.0 **** 0.0
340 H 29.6859 84.8388 53.8529 H 0.0 **** 0.0
341 H 22.4079 93.519 55.3396 H 0.0 **** 0.0
342 H 21.2826 92.4513 56.1277 H 0.0 **** 0.0
343 H 21.2802 93.6668 58.184 H 0.0 **** 0.0
344 H 21.7174 94.9176 56.9537 H 0.0 **** 0.0
345 H 22.5363 96.9784 58.139 H 0.0 **** 0.0
346 H 21.3218 95.9357 58.8584 H 0.0 **** 0.0
347 H 21.9269 96.6908 61.0969 H 0.0 **** 0.0
348 H 21.6097 98.1394 60.1161 H 0.0 **** 0.0
349 H 23.6427 98.5095 61.4387 H 0.0 **** 0.0
350 H 24.0983 98.3489 59.6923 H 0.0 **** 0.0
351 H 24.2351 96.1797 61.7737 H 0.0 **** 0.0
352 H 26.4784 97.716 60.4011 H 0.0 **** 0.0
353 H 26.0925 97.7469 62.1634 H 0.0 **** 0.0
354 H 27.9224 93.0096 59.7566 H 0.0 **** 0.0
355 H 30.0032 93.4268 60.8903 H 0.0 **** 0.0
356 H 18.6928 88.4301 48.8325 H 0.0 **** 0.0
357 H 17.917 87.3986 47.7084 H 0.0 **** 0.0
358 H 19.0341 88.6669 45.7855 H 0.0 **** 0.0
359 H 19.561 89.8996 47.0349 H 0.0 **** 0.0
360 H 17.8045 89.6371 46.7514 H 0.0 **** 0.0
361 H 19.4331 85.5008 44.9272 H 0.0 **** 0.0
362 H 18.2077 86.2466 45.9033 H 0.0 **** 0.0
363 H 18.5924 84.6124 46.2923 H 0.0 **** 0.0
364 H 22.0377 89.1671 49.814 H 0.0 **** 0.0
365 H 20.4734 88.697 50.4114 H 0.0 **** 0.0
366 H 20.6879 89.6638 48.8253 H 0.0 **** 0.0
367 H 21.2041 83.9133 45.2112 H 0.0 **** 0.0
368 H 20.314 83.1601 46.5826 H 0.0 **** 0.0
369 H 22.0572 83.0716 46.4794 H 0.0 **** 0.0
370 H 26.1551 81.8862 48.8925 H 0.0 **** 0.0
371 H 26.7947 83.0645 47.6419 H 0.0 **** 0.0
372 H 25.0921 82.5093 47.6779 H 0.0 **** 0.0
373 H 28.6685 84.0252 50.9061 H 0.0 **** 0.0
374 H 28.3234 83.4656 49.2918 H 0.0 **** 0.0
375 H 27.8598 82.4266 50.7222 H 0.0 **** 0.0
376 H 27.7319 83.6925 54.0423 H 0.0 **** 0.0
377 H 32.0141 87.2926 51.9151 H 0.0 **** 0.0
378 H 32.1615 86.1286 53.1808 H 0.0 **** 0.0
379 H 31.6794 87.8343 53.6626 H 0.0 **** 0.0
380 H 29.3771 89.9904 51.6483 H 0.0 **** 0.0
381 H 30.3366 88.7512 50.8287 H 0.0 **** 0.0
382 H 30.951 89.5419 52.3565 H 0.0 **** 0.0
383 H 27.9436 90.2207 57.7004 H 0.0 **** 0.0
384 H 22.4823 88.0398 54.7138 H 0.0 **** 0.0
385 H 28.5684 98.0395 62.7739 H 0.0 **** 0.0
386 H 29.0028 96.807 64.0128 H 0.0 **** 0.0
387 H 27.3916 97.1474 63.8229 H 0.0 **** 0.0
388 H 30.9075 96.5415 62.4512 H 0.0 **** 0.0
389 H 31.4168 94.7224 62.1388 H 0.0 **** 0.0
390 H 30.6805 95.1678 63.6467 H 0.0 **** 0.0
391 C 47.2812 106.118 63.0163 C 0.0 **** 0.0
392 C 48.7235 106.261 62.8923 C 0.0 **** 0.0
393 C 49.389 105.897 61.6914 C 0.0 **** 0.0
394 C 48.6514 105.324 60.6394 C 0.0 **** 0.0
395 C 47.2279 105.269 60.697 C 0.0 **** 0.0
396 C 46.5431 105.7 61.8559 C 0.0 **** 0.0
397 C 49.3467 104.734 59.4778 C 0.0 **** 0.0
398 C 50.8481 104.472 59.6497 C 0.0 **** 0.0
399 C 51.5436 105.054 60.7091 C 0.0 **** 0.0
400 C 50.8415 106.212 61.3582 C 0.0 **** 0.0
401 C 52.879 104.716 60.9878 C 0.0 **** 0.0
402 C 53.5037 103.724 60.2158 C 0.0 **** 0.0
403 C 52.8794 103.238 59.0583 C 0.0 **** 0.0
404 C 51.5322 103.614 58.7839 C 0.0 **** 0.0
405 C 50.8652 103.185 57.6218 C 0.0 **** 0.0
406 C 51.4839 102.271 56.7314 C 0.0 **** 0.0
407 C 52.6125 101.612 57.2042 C 0.0 **** 0.0
408 C 53.4435 102.285 58.1543 C 0.0 **** 0.0
409 C 52.9879 100.245 56.6526 C 0.0 **** 0.0
410 C 51.8301 99.599 55.8212 C 0.0 **** 0.0
411 C 51.1416 100.614 54.9523 C 0.0 **** 0.0
412 C 50.9113 101.918 55.4533 C 0.0 **** 0.0
413 C 50.8385 98.8814 56.7509 C 0.0 **** 0.0
414 C 51.4899 97.9464 57.8423 C 0.0 **** 0.0
415 C 52.9726 97.9527 57.8377 C 0.0 **** 0.0
416 C 53.6007 99.3334 57.7802 C 0.0 **** 0.0
417 C 50.2254 102.803 54.5776 C 0.0 **** 0.0
418 C 49.6997 102.352 53.2991 C 0.0 **** 0.0
419 C 49.8755 101.009 52.8822 C 0.0 **** 0.0
420 C 50.6711 100.174 53.697 C 0.0 **** 0.0
421 C 49.2583 100.526 51.6287 C 0.0 **** 0.0
422 C 48.8044 101.479 50.5978 C 0.0 **** 0.0
423 C 48.7388 102.831 50.946 C 0.0 **** 0.0
424 C 48.9669 103.251 52.3479 C 0.0 **** 0.0
425 C 48.251 103.881 49.9756 C 0.0 **** 0.0
426 C 47.7503 103.408 48.5685 C 0.0 **** 0.0
427 C 48.2186 101.971 48.2407 C 0.0 **** 0.0
428 C 48.5613 101.071 49.2612 C 0.0 **** 0.0
429 N 48.7039 99.7516 48.9416 N 0.0 **** 0.0
430 C 48.5333 99.229 47.7189 C 0.0 **** 0.0
431 C 48.2351 100.08 46.6272 C 0.0 **** 0.0
432 C 48.1232 101.486 46.9068 C 0.0 **** 0.0
433 C 47.9775 102.457 45.7587 C 0.0 **** 0.0
434 C 48.2345 101.81 44.3638 C 0.0 **** 0.0
435 C 47.5413 100.449 44.2233 C 0.0 **** 0.0
436 C 48.2168 99.5124 45.2413 C 0.0 **** 0.0
437 C 47.6186 98.0802 45.2414 C 0.0 **** 0.0
438 C 48.0985 97.2137 46.3953 C 0.0 **** 0.0
439 C 48.6031 97.8228 47.5874 C 0.0 **** 0.0
440 C 49.2346 97.0577 48.5592 C 0.0 **** 0.0
441 C 49.5749 95.7463 48.2649 C 0.0 **** 0.0
442 C 49.0421 95.1167 47.1189 C 0.0 **** 0.0
443 C 48.1478 95.8146 46.2571 C 0.0 **** 0.0
444 C 45.0075 105.606 61.8851 C 0.0 **** 0.0
445 C 44.3927 104.225 62.1827 C 0.0 **** 0.0
446 C 46.694 106.282 64.3992 C 0.0 **** 0.0
447 C 46.4663 104.758 59.4673 C 0.0 **** 0.0
448 C 49.5478 106.828 64.0392 C 0.0 **** 0.0
449 C 53.6695 105.408 62.105 C 0.0 **** 0.0
450 C 54.7169 103.005 60.7264 C 0.0 **** 0.0
451 O 54.8267 102.0 58.1215 O 0.0 **** 0.0
452 C 53.5451 97.0242 56.7816 C 0.0 **** 0.0
453 C 50.8679 96.5168 57.833 C 0.0 **** 0.0
454 O 51.252 98.9927 53.1765 O 0.0 **** 0.0
455 O 49.9023 104.145 54.9225 O 0.0 **** 0.0
456 O 48.5669 104.327 52.7229 O 0.0 **** 0.0
457 O 48.9293 99.3486 51.5531 O 0.0 **** 0.0
458 C 47.2674 95.1137 45.2554 C 0.0 **** 0.0
459 C 49.3263 93.6578 46.9541 C 0.0 **** 0.0
460 H 48.8861 103.737 59.336 H 0.0 **** 0.0
461 H 49.168 105.403 58.5843 H 0.0 **** 0.0
462 H 50.7944 106.972 60.5601 H 0.0 **** 0.0
463 H 51.3554 106.574 62.2173 H 0.0 **** 0.0
464 H 49.8497 103.509 57.3848 H 0.0 **** 0.0
465 H 50.2417 99.6442 57.3188 H 0.0 **** 0.0
466 H 50.0667 98.3433 56.1394 H 0.0 **** 0.0
467 H 51.1948 98.3938 58.8501 H 0.0 **** 0.0
468 H 53.276 97.4588 58.8531 H 0.0 **** 0.0
469 H 54.7359 99.2427 57.7556 H 0.0 **** 0.0
470 H 53.3204 99.7117 58.7807 H 0.0 **** 0.0
471 H 47.438 104.465 50.5179 H 0.0 **** 0.0
472 H 49.0148 104.686 49.8593 H 0.0 **** 0.0
473 H 47.9954 104.146 47.7751 H 0.0 **** 0.0
474 H 46.6355 103.386 48.6199 H 0.0 **** 0.0
475 H 46.9635 102.944 45.7552 H 0.0 **** 0.0
476 H 48.6919 103.303 45.8321 H 0.0 **** 0.0
477 H 49.3307 101.678 44.2768 H 0.0 **** 0.0
478 H 47.8948 102.512 43.5837 H 0.0 **** 0.0
479 H 47.6418 100.081 43.2076 H 0.0 **** 0.0
480 H 46.458 100.569 44.4125 H 0.0 **** 0.0
481 H 49.2836 99.4137 44.9416 H 0.0 **** 0.0
482 H 46.4571 98.0969 45.3253 H 0.0 **** 0.0
483 H 47.8395 97.5265 44.3165 H 0.0 **** 0.0
484 H 49.5864 97.518 49.4991 H 0.0 **** 0.0
485 H 50.1141 95.1883 48.9856 H 0.0 **** 0.0
486 H 44.5189 106.068 60.9762 H 0.0 **** 0.0
487 H 44.634 106.32 62.631 H 0.0 **** 0.0
488 H 43.3232 104.146 61.9147 H 0.0 **** 0.0
489 H 44.4054 104.05 63.298 H 0.0 **** 0.0
490 H 44.9368 103.386 61.6876 H 0.0 **** 0.0
491 H 45.7417 105.796 64.473 H 0.0 **** 0.0
492 H 46.5702 107.334 64.6986 H 0.0 **** 0.0
493 H 47.2768 105.756 65.1919 H 0.0 **** 0.0
494 H 45.4088 104.983 59.4383 H 0.0 **** 0.0
495 H 46.5333 103.637 59.4049 H 0.0 **** 0.0
496 H 46.8816 105.205 58.561 H 0.0 **** 0.0
497 H 50.0479 105.963 64.5305 H 0.0 **** 0.0
498 H 48.9432 107.4 64.7575 H 0.0 **** 0.0
499 H 50.2969 107.563 63.664 H 0.0 **** 0.0
500 H 54.7704 105.226 61.9146 H 0.0 **** 0.0
501 H 53.3689 105.014 63.0738 H 0.0 **** 0.0
502 H 53.5285 106.531 62.0676 H 0.0 **** 0.0
503 H 54.49 101.887 60.5166 H 0.0 **** 0.0
504 H 54.9789 103.089 61.822 H 0.0 **** 0.0
505 H 55.6095 103.245 60.0214 H 0.0 **** 0.0
506 H 55.1855 101.576 57.267 H 0.0 **** 0.0
507 H 53.1597 95.9957 56.8088 H 0.0 **** 0.0
508 H 54.6574 96.9421 56.9251 H 0.0 **** 0.0
509 H 53.4632 97.4533 55.8105 H 0.0 **** 0.0
510 H 49.8582 96.6086 58.3196 H 0.0 **** 0.0
511 H 51.4778 95.7954 58.3566 H 0.0 **** 0.0
512 H 50.7799 96.1147 56.7312 H 0.0 **** 0.0
513 H 51.1958 98.8485 52.1817 H 0.0 **** 0.0
514 H 50.6918 104.603 55.3676 H 0.0 **** 0.0
515 H 46.5341 95.783 44.8595 H 0.0 **** 0.0
516 H 46.8147 94.2062 45.7247 H 0.0 **** 0.0
517 H 47.9285 94.8434 44.4173 H 0.0 **** 0.0
518 H 48.5353 93.0908 47.5142 H 0.0 **** 0.0
519 H 50.333 93.4165 47.3325 H 0.0 **** 0.0
520 H 49.3059 93.3207 45.8897 H 0.0 **** 0.0
521 C 66.2012 87.8927 87.27 C 0.0 **** 0.0
522 C 65.0897 87.2046 86.6714 C 0.0 **** 0.0
523 C 65.2252 85.8388 86.3127 C 0.0 **** 0.0
524 C 66.4274 85.2157 86.5919 C 0.0 **** 0.0
525 C 67.5393 85.8783 87.1955 C 0.0 **** 0.0
526 C 67.4175 87.2226 87.5738 C 0.0 **** 0.0
527 C 66.6487 83.7654 86.2227 C 0.0 **** 0.0
528 C 65.4996 83.018 85.5223 C 0.0 **** 0.0
529 C 64.3494 83.7057 85.0933 C 0.0 **** 0.0
530 C 64.1174 85.1724 85.5 C 0.0 **** 0.0
531 C 63.3945 83.013 84.2877 C 0.0 **** 0.0
532 C 63.5528 81.6103 84.0774 C 0.0 **** 0.0
533 C 64.6307 80.8755 84.629 C 0.0 **** 0.0
534 C 65.642 81.6158 85.3101 C 0.0 **** 0.0
535 C 66.7458 81.0151 85.8055 C 0.0 **** 0.0
536 C 67.0126 79.5349 85.4804 C 0.0 **** 0.0
537 C 66.0848 78.864 84.5739 C 0.0 **** 0.0
538 C 64.8091 79.4584 84.4078 C 0.0 **** 0.0
539 C 66.3935 77.4684 83.9672 C 0.0 **** 0.0
540 C 67.9021 77.1536 83.985 C 0.0 **** 0.0
541 C 68.5417 77.487 85.3484 C 0.0 **** 0.0
542 C 68.1991 78.669 86.0582 C 0.0 **** 0.0
543 C 68.6319 77.7794 82.7853 C 0.0 **** 0.0
544 C 67.8085 77.7645 81.4855 C 0.0 **** 0.0
545 C 66.7311 76.7669 81.4661 C 0.0 **** 0.0
546 C 65.7253 77.0788 82.6037 C 0.0 **** 0.0
547 C 68.9068 79.0685 87.2369 C 0.0 **** 0.0
548 C 69.9302 78.2214 87.7199 C 0.0 **** 0.0
549 C 70.2623 77.0299 87.0103 C 0.0 **** 0.0
550 C 69.5349 76.653 85.874 C 0.0 **** 0.0
551 C 71.5377 76.3039 87.4316 C 0.0 **** 0.0
552 C 72.0554 76.3965 88.8484 C 0.0 **** 0.0
553 C 71.6272 77.5096 89.5826 C 0.0 **** 0.0
554 C 70.5291 78.3936 89.0928 C 0.0 **** 0.0
555 C 72.0936 77.6257 91.0252 C 0.0 **** 0.0
556 C 73.5611 77.2173 91.2124 C 0.0 **** 0.0
557 C 73.7579 75.8603 90.5668 C 0.0 **** 0.0
558 C 73.0448 75.5661 89.3547 C 0.0 **** 0.0
559 N 73.3236 74.3811 88.7156 N 0.0 **** 0.0
560 C 74.204 73.5029 89.1485 C 0.0 **** 0.0
561 C 74.9095 73.7447 90.3784 C 0.0 **** 0.0
562 C 74.6608 74.9084 91.1414 C 0.0 **** 0.0
563 C 75.4449 75.1826 92.3764 C 0.0 **** 0.0
564 C 76.3148 74.0111 92.8652 C 0.0 **** 0.0
565 C 77.0343 73.3127 91.7116 C 0.0 **** 0.0
566 C 75.9828 72.7158 90.7352 C 0.0 **** 0.0
567 C 76.6626 72.1074 89.5013 C 0.0 **** 0.0
568 C 75.5674 71.5302 88.603 C 0.0 **** 0.0
569 C 74.3911 72.2962 88.4151 C 0.0 **** 0.0
570 C 73.4115 71.8936 87.4827 C 0.0 **** 0.0
571 C 73.6191 70.7315 86.7228 C 0.0 **** 0.0
572 C 74.7041 69.895 86.9693 C 0.0 **** 0.0
573 C 75.7165 70.3101 87.8851 C 0.0 **** 0.0
574 C 68.6342 87.9634 88.1478 C 0.0 **** 0.0
575 C 69.4709 88.4574 86.9417 C 0.0 **** 0.0
576 C 66.093 89.3867 87.5696 C 0.0 **** 0.0
577 C 68.8864 85.0916 87.3873 C 0.0 **** 0.0
578 C 63.7107 87.8835 86.5242 C 0.0 **** 0.0
579 C 62.2096 83.7436 83.6471 C 0.0 **** 0.0
580 C 62.6499 80.8975 83.0863 C 0.0 **** 0.0
581 O 63.7366 78.6404 84.0929 O 0.0 **** 0.0
582 C 67.1588 75.3276 81.5364 C 0.0 **** 0.0
583 C 68.7149 77.7417 80.2372 C 0.0 **** 0.0
584 O 69.7282 75.3808 85.2175 O 0.0 **** 0.0
585 O 68.5089 80.2435 87.9374 O 0.0 **** 0.0
586 O 70.1159 79.312 89.8193 O 0.0 **** 0.0
587 O 72.2633 75.7995 86.5727 O 0.0 **** 0.0
588 C 77.0018 69.5234 88.059 C 0.0 **** 0.0
589 C 74.7921 68.6033 86.2498 C 0.0 **** 0.0
590 H 67.5531 83.6961 85.5933 H 0.0 **** 0.0
591 H 66.8572 83.2153 87.1938 H 0.0 **** 0.0
592 H 63.1768 85.2312 86.0131 H 0.0 **** 0.0
593 H 63.9449 85.8442 84.6317 H 0.0 **** 0.0
594 H 66.9832 80.2633 85.7319 H 0.0 **** 0.0
595 H 68.878 78.8311 83.0578 H 0.0 **** 0.0
596 H 69.588 77.2401 82.6609 H 0.0 **** 0.0
597 H 67.3285 78.7887 81.4323 H 0.0 **** 0.0
598 H 66.1737 76.7942 80.4992 H 0.0 **** 0.0
599 H 65.0504 76.2708 82.8224 H 0.0 **** 0.0
600 H 65.1191 77.8866 82.2356 H 0.0 **** 0.0
601 H 71.9611 78.7027 91.3799 H 0.0 **** 0.0
602 H 71.4339 76.972 91.7094 H 0.0 **** 0.0
603 H 73.8185 77.2762 92.3087 H 0.0 **** 0.0
604 H 74.1225 77.9175 90.6055 H 0.0 **** 0.0
605 H 76.039 76.1032 92.2772 H 0.0 **** 0.0
606 H 74.6621 75.3175 93.1691 H 0.0 **** 0.0
607 H 75.6605 73.2059 93.4255 H 0.0 **** 0.0
608 H 77.0823 74.4135 93.5666 H 0.0 **** 0.0
609 H 77.6629 72.5504 92.2479 H 0.0 **** 0.0
610 H 77.6964 73.9984 91.1652 H 0.0 **** 0.0
611 H 75.4755 71.8746 91.2663 H 0.0 **** 0.0
612 H 77.2143 72.9708 88.9975 H 0.0 **** 0.0
613 H 77.4049 71.3872 89.9176 H 0.0 **** 0.0
614 H 72.4688 72.484 87.3121 H 0.0 **** 0.0
615 H 72.8095 70.4361 86.1051 H 0.0 **** 0.0
616 H 69.2347 87.3876 88.8675 H 0.0 **** 0.0
617 H 68.3262 88.8036 88.7214 H 0.0 **** 0.0
618 H 69.0854 89.3713 86.463 H 0.0 **** 0.0
619 H 69.5717 87.6038 86.2 H 0.0 **** 0.0
620 H 70.5223 88.7309 87.2798 H 0.0 **** 0.0
621 H 65.3911 89.8138 86.8074 H 0.0 **** 0.0
622 H 66.99 89.983 87.3578 H 0.0 **** 0.0
623 H 65.7808 89.5628 88.6395 H 0.0 **** 0.0
624 H 69.2853 84.7759 86.398 H 0.0 **** 0.0
625 H 68.6609 84.1986 88.0501 H 0.0 **** 0.0
626 H 69.6272 85.5814 88.0133 H 0.0 **** 0.0
627 H 62.8947 87.1804 86.7659 H 0.0 **** 0.0
628 H 63.6056 88.2591 85.5154 H 0.0 **** 0.0
629 H 63.5231 88.6668 87.2769 H 0.0 **** 0.0
630 H 61.268 83.2324 83.8208 H 0.0 **** 0.0
631 H 62.3644 83.7467 82.5603 H 0.0 **** 0.0
632 H 62.1395 84.7855 83.9972 H 0.0 **** 0.0
633 H 63.1026 80.0119 82.5795 H 0.0 **** 0.0
634 H 62.4069 81.5172 82.242 H 0.0 **** 0.0
635 H 61.6624 80.6672 83.528 H 0.0 **** 0.0
636 H 63.7773 77.6951 84.487 H 0.0 **** 0.0
637 H 67.8011 75.0637 80.7059 H 0.0 **** 0.0
638 H 66.2971 74.6618 81.3814 H 0.0 **** 0.0
639 H 67.6241 75.1103 82.5277 H 0.0 **** 0.0
640 H 69.5011 78.5453 80.3275 H 0.0 **** 0.0
641 H 68.0794 77.8822 79.3546 H 0.0 **** 0.0
642 H 69.2517 76.775 80.1196 H 0.0 **** 0.0
643 H 70.1772 74.7356 85.8033 H 0.0 **** 0.0
644 H 69.2179 80.9698 88.0321 H 0.0 **** 0.0
645 H 77.9543 70.0929 87.9332 H 0.0 **** 0.0
646 H 77.0761 68.7078 87.2686 H 0.0 **** 0.0
647 H 77.0065 68.9294 88.9545 H 0.0 **** 0.0
648 H 75.6323 68.6489 85.4693 H 0.0 **** 0.0
649 H 73.851 68.4188 85.7125 H 0.0 **** 0.0
650 H 74.9588 67.7973 86.955 H 0.0 **** 0.0
651 C 11.6582 15.5134 83.5152 C 0.0 **** 0.0
652 C 10.4409 15.7598 82.827 C 0.0 **** 0.0
653 C 9.90967 14.772 81.9636 C 0.0 **** 0.0
654 C 10.4549 13.4886 81.931 C 0.0 **** 0.0
655 C 11.6558 13.1999 82.6584 C 0.0 **** 0.0
656 C 12.3032 14.2493 83.3968 C 0.0 **** 0.0
657 C 9.7932 12.4441 81.051 C 0.0 **** 0.0
658 C 8.62246 12.7989 80.1903 C 0.0 **** 0.0
659 C 8.15162 14.1082 80.1488 C 0.0 **** 0.0
660 C 8.63093 15.144 81.1657 C 0.0 **** 0.0
661 C 7.15109 14.4865 79.246 C 0.0 **** 0.0
662 C 6.80028 13.5899 78.183 C 0.0 **** 0.0
663 C 7.15494 12.2295 78.3077 C 0.0 **** 0.0
664 C 8.0994 11.8129 79.3137 C 0.0 **** 0.0
665 C 8.35493 10.4556 79.5208 C 0.0 **** 0.0
666 C 7.75321 9.48017 78.6806 C 0.0 **** 0.0
667 C 7.13783 9.8798 77.5097 C 0.0 **** 0.0
668 C 6.63472 11.2321 77.4301 C 0.0 **** 0.0
669 C 6.87745 8.94254 76.3639 C 0.0 **** 0.0
670 C 7.29813 7.45429 76.713 C 0.0 **** 0.0
671 C 7.32913 7.13541 78.1989 C 0.0 **** 0.0
672 C 7.67235 8.11487 79.1196 C 0.0 **** 0.0
673 C 8.65659 6.99667 76.0572 C 0.0 **** 0.0
674 C 9.70874 8.08062 76.0209 C 0.0 **** 0.0
675 C 9.2609 9.20993 75.1621 C 0.0 **** 0.0
676 C 7.69425 9.40385 75.1266 C 0.0 **** 0.0
677 C 7.7471 7.77608 80.4779 C 0.0 **** 0.0
678 C 7.72006 6.37806 80.8937 C 0.0 **** 0.0
679 C 7.4625 5.39167 79.922 C 0.0 **** 0.0
680 C 7.19143 5.81193 78.5681 C 0.0 **** 0.0
681 C 7.51672 3.95542 80.3595 C 0.0 **** 0.0
682 C 7.251 3.58706 81.7476 C 0.0 **** 0.0
683 C 7.34541 4.56346 82.7147 C 0.0 **** 0.0
684 C 7.78768 5.91953 82.324 C 0.0 **** 0.0
685 C 6.76817 4.42288 84.0891 C 0.0 **** 0.0
686 C 6.79064 2.98123 84.5863 C 0.0 **** 0.0
687 C 6.60169 1.92943 83.4485 C 0.0 **** 0.0
688 C 6.85809 2.29679 82.0968 C 0.0 **** 0.0
689 N 6.88167 1.27222 81.1641 N 0.0 **** 0.0
690 C 6.60966 -0.023249 81.4545 C 0.0 **** 0.0
691 C 6.29622 -0.397886 82.7443 C 0.0 **** 0.0
692 C 6.26292 0.57416 83.7824 C 0.0 **** 0.0
693 C 5.81286 0.167846 85.1871 C 0.0 **** 0.0
694 C 5.35365 -1.32086 85.3248 C 0.0 **** 0.0
695 C 6.22724 -2.21613 84.5411 C 0.0 **** 0.0
696 C 6.15749 -1.8432 83.0457 C 0.0 **** 0.0
697 C 7.15023 -2.68253 82.266 C 0.0 **** 0.0
698 C 7.01192 -2.35362 80.7923 C 0.0 **** 0.0
699 C 6.77562 -0.982929 80.4408 C 0.0 **** 0.0
700 C 6.67962 -0.618654 79.0778 C 0.0 **** 0.0
701 C 6.8008 -1.56924 78.1117 C 0.0 **** 0.0
702 C 6.93659 -2.90102 78.4337 C 0.0 **** 0.0
703 C 7.09462 -3.30939 79.7866 C 0.0 **** 0.0
704 C 13.7354 14.1006 83.8539 C 0.0 **** 0.0
705 C 14.7082 14.6503 82.8176 C 0.0 **** 0.0
706 C 12.2804 16.64 84.3662 C 0.0 **** 0.0
707 C 12.3071 11.8275 82.5763 C 0.0 **** 0.0
708 C 9.80975 17.1446 82.9174 C 0.0 **** 0.0
709 C 6.39279 15.7953 79.3983 C 0.0 **** 0.0
710 C 6.17456 14.1255 76.9127 C 0.0 **** 0.0
711 O 5.55258 11.5134 76.6098 O 0.0 **** 0.0
712 C 9.86809 9.13537 73.7277 C 0.0 **** 0.0
713 C 11.082 7.42525 75.6739 C 0.0 **** 0.0
714 O 6.63467 4.89982 77.6785 O 0.0 **** 0.0
715 O 7.55597 8.79814 81.4482 O 0.0 **** 0.0
716 O 8.31903 6.61578 83.1685 O 0.0 **** 0.0
717 O 7.88522 3.15108 79.5362 O 0.0 **** 0.0
718 C 7.35229 -4.76289 80.1032 C 0.0 **** 0.0
719 C 7.09044 -3.90115 77.2739 C 0.0 **** 0.0
720 H 10.5622 12.1122 80.2762 H 0.0 **** 0.0
721 H 9.48631 11.5605 81.719 H 0.0 **** 0.0
722 H 7.82922 15.2623 81.9309 H 0.0 **** 0.0
723 H 8.87324 16.0781 80.6748 H 0.0 **** 0.0
724 H 9.12329 10.153 80.1731 H 0.0 **** 0.0
725 H 9.02915 6.04872 76.474 H 0.0 **** 0.0
726 H 8.39468 6.73253 74.9893 H 0.0 **** 0.0
727 H 9.82805 8.49263 77.0467 H 0.0 **** 0.0
728 H 9.68248 10.1337 75.6484 H 0.0 **** 0.0
729 H 7.2408 8.89653 74.2327 H 0.0 **** 0.0
730 H 7.47667 10.4512 75.0098 H 0.0 **** 0.0
731 H 7.33524 4.97877 84.8666 H 0.0 **** 0.0
732 H 5.7373 4.76538 84.0038 H 0.0 **** 0.0
733 H 6.04205 2.7857 85.3209 H 0.0 **** 0.0
734 H 7.75678 2.77485 85.0774 H 0.0 **** 0.0
735 H 6.63133 0.35882 85.8745 H 0.0 **** 0.0
736 H 4.97426 0.784501 85.5765 H 0.0 **** 0.0
737 H 4.34064 -1.40757 85.0274 H 0.0 **** 0.0
738 H 5.45421 -1.62453 86.3986 H 0.0 **** 0.0
739 H 5.83969 -3.26575 84.6401 H 0.0 **** 0.0
740 H 7.2417 -2.02564 84.8765 H 0.0 **** 0.0
741 H 5.16299 -2.16268 82.6937 H 0.0 **** 0.0
742 H 8.17321 -2.45326 82.6016 H 0.0 **** 0.0
743 H 6.93276 -3.72651 82.465 H 0.0 **** 0.0
744 H 6.43389 0.416412 78.7714 H 0.0 **** 0.0
745 H 6.61645 -1.24768 77.0976 H 0.0 **** 0.0
746 H 13.9531 13.0563 84.0636 H 0.0 **** 0.0
747 H 13.965 14.5022 84.8717 H 0.0 **** 0.0
748 H 14.488 15.723 82.6769 H 0.0 **** 0.0
749 H 14.6003 14.1802 81.8241 H 0.0 **** 0.0
750 H 15.7716 14.6021 83.14 H 0.0 **** 0.0
751 H 11.636 16.7818 85.2502 H 0.0 **** 0.0
752 H 12.2729 17.5545 83.7818 H 0.0 **** 0.0
753 H 13.2893 16.4343 84.7482 H 0.0 **** 0.0
754 H 11.722 11.0735 82.0069 H 0.0 **** 0.0
755 H 12.426 11.4877 83.6333 H 0.0 **** 0.0
756 H 13.2958 11.8018 82.0319 H 0.0 **** 0.0
757 H 10.4533 17.9435 82.4621 H 0.0 **** 0.0
758 H 9.67386 17.3948 83.9827 H 0.0 **** 0.0
759 H 8.79893 17.194 82.4604 H 0.0 **** 0.0
760 H 7.0649 16.6807 79.1744 H 0.0 **** 0.0
761 H 5.97757 15.7907 80.4134 H 0.0 **** 0.0
762 H 5.48678 15.8352 78.7398 H 0.0 **** 0.0
763 H 6.6048 13.6357 76.0089 H 0.0 **** 0.0
764 H 6.44103 15.1958 76.7447 H 0.0 **** 0.0
765 H 5.12033 13.921 76.8724 H 0.0 **** 0.0
766 H 5.14456 10.7045 76.1884 H 0.0 **** 0.0
767 H 10.993 9.05602 73.6719 H 0.0 **** 0.0
768 H 9.44128 9.9904 73.1648 H 0.0 **** 0.0
769 H 9.48653 8.2586 73.1876 H 0.0 **** 0.0
770 H 11.3424 6.70856 76.4549 H 0.0 **** 0.0
771 H 11.8793 8.22137 75.6579 H 0.0 **** 0.0
772 H 11.0457 6.92162 74.7006 H 0.0 **** 0.0
773 H 6.39934 4.01234 78.0648 H 0.0 **** 0.0
774 H 7.66311 8.57742 82.4364 H 0.0 **** 0.0
775 H 8.20993 -4.82472 80.7554 H 0.0 **** 0.0
776 H 7.63223 -5.40662 79.2273 H 0.0 **** 0.0
777 H 6.5076 -5.19112 80.6736 H 0.0 **** 0.0
778 H 8.14577 -4.33581 77.3621 H 0.0 **** 0.0
779 H 7.00803 -3.41059 76.2677 H 0.0 **** 0.0
780 H 6.232 -4.61716 77.4236 H 0.0 **** 0.0
781 C 57.7026 96.0477 58.6212 C 0.0 **** 0.0
782 C 56.5964 95.2206 58.291 C 0.0 **** 0.0
783 C 55.596 94.9779 59.2601 C 0.0 **** 0.0
784 C 55.5306 95.8498 60.3928 C 0.0 **** 0.0
785 C 56.5345 96.8174 60.6035 C 0.0 **** 0.0
786 C 57.6682 96.8838 59.7592 C 0.0 **** 0.0
787 C 54.4117 95.7031 61.3976 C 0.0 **** 0.0
788 C 53.4432 94.5189 61.2293 C 0.0 **** 0.0
789 C 53.5241 93.6809 60.1379 C 0.0 **** 0.0
790 C 54.559 93.8994 59.0616 C 0.0 **** 0.0
791 C 52.5629 92.6265 59.9936 C 0.0 **** 0.0
792 C 51.5031 92.5078 60.9177 C 0.0 **** 0.0
793 C 51.4936 93.3573 62.0974 C 0.0 **** 0.0
794 C 52.3897 94.4371 62.1641 C 0.0 **** 0.0
795 C 52.2785 95.3205 63.2845 C 0.0 **** 0.0
796 C 51.3209 95.1641 64.2798 C 0.0 **** 0.0
797 C 50.4129 94.0915 64.2019 C 0.0 **** 0.0
798 C 50.5463 93.1588 63.1308 C 0.0 **** 0.0
799 C 49.2773 93.9854 65.1926 C 0.0 **** 0.0
800 C 48.7392 95.3889 65.4935 C 0.0 **** 0.0
801 C 49.8354 96.3855 65.8069 C 0.0 **** 0.0
802 C 51.1389 96.1568 65.2614 C 0.0 **** 0.0
803 C 47.6177 95.1957 66.5768 C 0.0 **** 0.0
804 C 48.0886 94.5119 67.89 C 0.0 **** 0.0
805 C 48.6004 93.129 67.6116 C 0.0 **** 0.0
806 C 49.7259 93.2237 66.5182 C 0.0 **** 0.0
807 C 52.2188 96.8903 65.741 C 0.0 **** 0.0
808 C 52.0094 97.964 66.6371 C 0.0 **** 0.0
809 C 50.6837 98.408 66.8654 C 0.0 **** 0.0
810 C 49.5857 97.6207 66.4834 C 0.0 **** 0.0
811 C 50.5454 99.6624 67.6725 C 0.0 **** 0.0
812 C 51.4773 99.8126 68.861 C 0.0 **** 0.0
813 C 52.6645 99.0872 68.881 C 0.0 **** 0.0
814 C 53.0374 98.2995 67.6898 C 0.0 **** 0.0
815 C 53.6115 99.2423 70.0782 C 0.0 **** 0.0
816 C 52.7755 99.2744 71.3616 C 0.0 **** 0.0
817 C 51.5457 100.182 71.2472 C 0.0 **** 0.0
818 C 50.9995 100.533 70.0124 C 0.0 **** 0.0
819 N 49.9479 101.379 69.9325 N 0.0 **** 0.0
820 C 49.3586 101.989 71.0131 C 0.0 **** 0.0
821 C 49.8903 101.703 72.282 C 0.0 **** 0.0
822 C 50.9427 100.766 72.4233 C 0.0 **** 0.0
823 C 51.3056 100.251 73.7888 C 0.0 **** 0.0
824 C 50.9616 101.194 74.9115 C 0.0 **** 0.0
825 C 49.527 101.738 74.8397 C 0.0 **** 0.0
826 C 49.3423 102.464 73.4963 C 0.0 **** 0.0
827 C 47.8958 102.904 73.3142 C 0.0 **** 0.0
828 C 47.5952 103.447 71.95 C 0.0 **** 0.0
829 C 48.3317 103.01 70.8622 C 0.0 **** 0.0
830 C 48.0671 103.506 69.5446 C 0.0 **** 0.0
831 C 47.0922 104.505 69.3544 C 0.0 **** 0.0
832 C 46.4023 105.029 70.4681 C 0.0 **** 0.0
833 C 46.579 104.436 71.7606 C 0.0 **** 0.0
834 C 58.7766 97.9657 60.0072 C 0.0 **** 0.0
835 C 59.8631 97.3832 60.9137 C 0.0 **** 0.0
836 C 58.8217 96.1316 57.616 C 0.0 **** 0.0
837 C 56.4308 97.7672 61.7913 C 0.0 **** 0.0
838 C 56.508 94.3869 56.9907 C 0.0 **** 0.0
839 C 52.5507 91.7702 58.7145 C 0.0 **** 0.0
840 C 50.3483 91.5938 60.569 C 0.0 **** 0.0
841 O 49.7656 91.9929 63.1556 O 0.0 **** 0.0
842 C 47.5433 92.1056 67.2514 C 0.0 **** 0.0
843 C 47.0275 94.5426 69.0237 C 0.0 **** 0.0
844 O 48.3039 98.1371 66.5907 O 0.0 **** 0.0
845 O 53.5402 96.4612 65.5324 O 0.0 **** 0.0
846 O 54.1497 97.8011 67.666 O 0.0 **** 0.0
847 O 49.6502 100.492 67.4625 O 0.0 **** 0.0
848 C 45.723 104.889 72.9149 C 0.0 **** 0.0
849 C 45.5179 106.224 70.2406 C 0.0 **** 0.0
850 H 54.8563 95.5383 62.4026 H 0.0 **** 0.0
851 H 53.7875 96.6555 61.3504 H 0.0 **** 0.0
852 H 54.0334 94.0697 58.1117 H 0.0 **** 0.0
853 H 55.0887 92.9321 59.0406 H 0.0 **** 0.0
854 H 52.8426 96.232 63.2814 H 0.0 **** 0.0
855 H 47.1368 96.1404 66.854 H 0.0 **** 0.0
856 H 46.7741 94.6282 66.0862 H 0.0 **** 0.0
857 H 48.9544 95.0977 68.2879 H 0.0 **** 0.0
858 H 49.0955 92.7489 68.5108 H 0.0 **** 0.0
859 H 50.0509 92.2027 66.2823 H 0.0 **** 0.0
860 H 50.6406 93.702 66.909 H 0.0 **** 0.0
861 H 54.3417 98.4479 70.1113 H 0.0 **** 0.0
862 H 54.1785 100.213 69.9901 H 0.0 **** 0.0
863 H 53.4495 99.6923 72.1201 H 0.0 **** 0.0
864 H 52.4393 98.2516 71.5762 H 0.0 **** 0.0
865 H 50.705 99.3717 74.0067 H 0.0 **** 0.0
866 H 52.3795 99.9921 73.8793 H 0.0 **** 0.0
867 H 51.6582 102.036 74.8084 H 0.0 **** 0.0
868 H 51.0673 100.648 75.8886 H 0.0 **** 0.0
869 H 49.3237 102.475 75.6586 H 0.0 **** 0.0
870 H 48.8 100.931 74.8769 H 0.0 **** 0.0
871 H 49.927 103.421 73.5617 H 0.0 **** 0.0
872 H 47.302 102.021 73.4703 H 0.0 **** 0.0
873 H 47.7556 103.715 74.0802 H 0.0 **** 0.0
874 H 48.6145 103.146 68.693 H 0.0 **** 0.0
875 H 46.9134 104.933 68.3438 H 0.0 **** 0.0
876 H 58.2988 98.8767 60.415 H 0.0 **** 0.0
877 H 59.1641 98.3075 59.0672 H 0.0 **** 0.0
878 H 60.1702 96.3445 60.5411 H 0.0 **** 0.0
879 H 59.5578 97.2927 62.0019 H 0.0 **** 0.0
880 H 60.7829 98.0843 60.865 H 0.0 **** 0.0
881 H 59.1086 95.1638 57.2202 H 0.0 **** 0.0
882 H 59.7422 96.594 58.0132 H 0.0 **** 0.0
883 H 58.5113 96.7995 56.786 H 0.0 **** 0.0
884 H 55.6229 97.511 62.4967 H 0.0 **** 0.0
885 H 56.3159 98.8411 61.476 H 0.0 **** 0.0
886 H 57.3249 97.6849 62.4513 H 0.0 **** 0.0
887 H 55.515 94.48 56.6063 H 0.0 **** 0.0
888 H 56.7262 93.276 57.1845 H 0.0 **** 0.0
889 H 57.1728 94.709 56.1904 H 0.0 **** 0.0
890 H 51.7054 92.2114 58.0768 H 0.0 **** 0.0
891 H 52.3793 90.7148 58.9397 H 0.0 **** 0.0
892 H 53.5206 91.6863 58.1489 H 0.0 **** 0.0
893 H 50.4221 90.6495 61.1518 H 0.0 **** 0.0
894 H 50.2895 91.3005 59.4781 H 0.0 **** 0.0
895 H 49.3791 92.1331 60.7715 H 0.0 **** 0.0
896 H 49.0207 91.8836 63.8483 H 0.0 **** 0.0
897 H 46.631 92.174 67.9126 H 0.0 **** 0.0
898 H 47.9229 91.0636 67.4382 H 0.0 **** 0.0
899 H 47.1889 92.2208 66.2089 H 0.0 **** 0.0
900 H 46.8298 95.5987 69.3107 H 0.0 **** 0.0
901 H 47.3964 94.0775 69.9697 H 0.0 **** 0.0
902 H 46.078 94.0515 68.7206 H 0.0 **** 0.0
903 H 48.0195 98.6143 67.4199 H 0.0 **** 0.0
904 H 54.2138 97.1677 65.3742 H 0.0 **** 0.0
905 H 45.3466 104.027 73.5347 H 0.0 **** 0.0
906 H 44.8728 105.497 72.5432 H 0.0 **** 0.0
907 H 46.3673 105.491 73.5686 H 0.0 **** 0.0
908 H 44.4408 105.875 70.222 H 0.0 **** 0.0
909 H 45.7954 106.731 69.2891 H 0.0 **** 0.0
910 H 45.6884 106.972 71.0036 H 0.0 **** 0.0
911 C 70.8226 88.6821 97.5306 C 0.0 **** 0.0
912 C 71.7109 89.761 97.2635 C 0.0 **** 0.0
913 C 72.9083 89.4866 96.6128 C 0.0 **** 0.0
914 C 73.1973 88.1904 96.1155 C 0.0 **** 0.0
915 C 72.1674 87.1597 96.1702 C 0.0 **** 0.0
916 C 70.9297 87.4681 96.7994 C 0.0 **** 0.0
917 C 74.528 87.8075 95.6047 C 0.0 **** 0.0
918 C 75.6507 88.8011 95.7441 C 0.0 **** 0.0
919 C 75.3084 90.1446 96.0212 C 0.0 **** 0.0
920 C 73.8722 90.5982 96.332 C 0.0 **** 0.0
921 C 76.3459 91.129 95.9993 C 0.0 **** 0.0
922 C 77.7388 90.6725 96.0231 C 0.0 **** 0.0
923 C 78.0196 89.2625 96.0453 C 0.0 **** 0.0
924 C 76.9852 88.3876 95.6276 C 0.0 **** 0.0
925 C 77.3079 87.1058 95.1906 C 0.0 **** 0.0
926 C 78.6283 86.6689 95.0951 C 0.0 **** 0.0
927 C 79.5938 87.3953 95.8518 C 0.0 **** 0.0
928 C 79.3185 88.7389 96.2839 C 0.0 **** 0.0
929 C 80.9014 86.6246 96.2014 C 0.0 **** 0.0
930 C 80.5923 85.1308 96.2388 C 0.0 **** 0.0
931 C 79.9288 84.6893 94.9801 C 0.0 **** 0.0
932 C 78.9093 85.4793 94.4691 C 0.0 **** 0.0
933 C 79.8168 84.7978 97.5347 C 0.0 **** 0.0
934 C 80.7625 85.094 98.6947 C 0.0 **** 0.0
935 C 81.061 86.5498 98.7856 C 0.0 **** 0.0
936 C 81.6916 87.0192 97.4464 C 0.0 **** 0.0
937 C 78.2053 85.0291 93.3086 C 0.0 **** 0.0
938 C 78.4656 83.7317 92.8054 C 0.0 **** 0.0
939 C 79.6179 83.0607 93.2348 C 0.0 **** 0.0
940 C 80.2979 83.5124 94.3825 C 0.0 **** 0.0
941 C 80.0188 81.837 92.481 C 0.0 **** 0.0
942 C 79.0026 81.0799 91.6899 C 0.0 **** 0.0
943 C 77.7789 81.6759 91.4531 C 0.0 **** 0.0
944 C 77.4855 83.0373 91.9313 C 0.0 **** 0.0
945 C 76.777 80.998 90.6094 C 0.0 **** 0.0
946 C 76.8243 79.4733 90.7335 C 0.0 **** 0.0
947 C 78.2687 79.0118 90.5749 C 0.0 **** 0.0
948 C 79.2938 79.7812 91.1205 C 0.0 **** 0.0
949 N 80.5939 79.3238 91.0124 N 0.0 **** 0.0
950 C 81.0019 78.1548 90.4118 C 0.0 **** 0.0
951 C 80.0106 77.3924 89.7869 C 0.0 **** 0.0
952 C 78.6649 77.7938 89.9261 C 0.0 **** 0.0
953 C 77.5323 76.8678 89.4483 C 0.0 **** 0.0
954 C 77.9961 75.8442 88.4349 C 0.0 **** 0.0
955 C 79.3062 75.1814 88.8476 C 0.0 **** 0.0
956 C 80.4043 76.2032 88.993 C 0.0 **** 0.0
957 C 81.6778 75.5558 89.5275 C 0.0 **** 0.0
958 C 82.7612 76.5726 89.7467 C 0.0 **** 0.0
959 C 82.3768 77.8011 90.3545 C 0.0 **** 0.0
960 C 83.3405 78.7383 90.7306 C 0.0 **** 0.0
961 C 84.6786 78.4568 90.4551 C 0.0 **** 0.0
962 C 85.0884 77.3325 89.7318 C 0.0 **** 0.0
963 C 84.1482 76.3772 89.3851 C 0.0 **** 0.0
964 C 69.7792 86.4716 96.7861 C 0.0 **** 0.0
965 C 69.9328 85.4232 97.8708 C 0.0 **** 0.0
966 C 69.7228 88.848 98.5829 C 0.0 **** 0.0
967 C 72.4351 85.8232 95.5469 C 0.0 **** 0.0
968 C 71.2772 91.2197 97.6334 C 0.0 **** 0.0
969 C 75.9991 92.6031 95.9048 C 0.0 **** 0.0
970 C 78.8532 91.6869 95.8423 C 0.0 **** 0.0
971 O 80.328 89.5979 96.7593 O 0.0 **** 0.0
972 C 82.0497 86.935 99.8907 C 0.0 **** 0.0
973 C 81.9987 84.1393 98.6246 C 0.0 **** 0.0
974 O 81.2411 82.7092 95.0324 O 0.0 **** 0.0
975 O 77.357 85.9083 92.6553 O 0.0 **** 0.0
976 O 76.4155 83.5411 91.663 O 0.0 **** 0.0
977 O 81.1758 81.4637 92.5219 O 0.0 **** 0.0
978 C 84.5668 75.1381 88.6807 C 0.0 **** 0.0
979 C 86.5254 77.3224 89.3325 C 0.0 **** 0.0
980 H 74.9041 86.9437 96.2021 H 0.0 **** 0.0
981 H 74.5079 87.5509 94.5067 H 0.0 **** 0.0
982 H 73.4452 91.1927 95.5179 H 0.0 **** 0.0
983 H 73.9651 91.2425 97.252 H 0.0 **** 0.0
984 H 76.5313 86.4263 94.8663 H 0.0 **** 0.0
985 H 78.856 85.3822 97.6464 H 0.0 **** 0.0
986 H 79.529 83.7284 97.5192 H 0.0 **** 0.0
987 H 80.1905 84.816 99.6122 H 0.0 **** 0.0
988 H 80.1614 87.0965 98.9267 H 0.0 **** 0.0
989 H 82.6945 86.5397 97.2445 H 0.0 **** 0.0
990 H 82.076 88.0687 97.4648 H 0.0 **** 0.0
991 H 75.7908 81.3273 90.9814 H 0.0 **** 0.0
992 H 77.0069 81.285 89.5739 H 0.0 **** 0.0
993 H 76.1682 79.127 89.9351 H 0.0 **** 0.0
994 H 76.3894 79.1508 91.7068 H 0.0 **** 0.0
995 H 77.1289 76.2896 90.3325 H 0.0 **** 0.0
996 H 76.7389 77.4477 88.9656 H 0.0 **** 0.0
997 H 78.2169 76.4247 87.4959 H 0.0 **** 0.0
998 H 77.2471 75.1077 88.1869 H 0.0 **** 0.0
999 H 79.6095 74.5244 87.9866 H 0.0 **** 0.0
1000 H 79.1627 74.5822 89.7605 H 0.0 **** 0.0
1001 H 80.6439 76.6219 88.0206 H 0.0 **** 0.0
1002 H 81.5333 75.0833 90.5335 H 0.0 **** 0.0
1003 H 82.0068 74.7276 88.8496 H 0.0 **** 0.0
1004 H 83.1646 79.677 91.2148 H 0.0 **** 0.0
1005 H 85.4166 79.2132 90.7358 H 0.0 **** 0.0
1006 H 69.631 86.0243 95.8158 H 0.0 **** 0.0
1007 H 68.7799 86.9968 96.9655 H 0.0 **** 0.0
1008 H 69.6779 85.854 98.833 H 0.0 **** 0.0
1009 H 70.9693 84.9823 97.9269 H 0.0 **** 0.0
1010 H 69.2118 84.5787 97.7056 H 0.0 **** 0.0
1011 H 69.9425 89.6822 99.2853 H 0.0 **** 0.0
1012 H 69.6225 87.9737 99.3103 H 0.0 **** 0.0
1013 H 68.7437 89.0107 98.1341 H 0.0 **** 0.0
1014 H 73.2536 85.3037 96.0569 H 0.0 **** 0.0
1015 H 72.6086 85.9318 94.4537 H 0.0 **** 0.0
1016 H 71.6375 85.1005 95.6685 H 0.0 **** 0.0
1017 H 71.5226 91.9066 96.7926 H 0.0 **** 0.0
1018 H 71.8978 91.5686 98.5288 H 0.0 **** 0.0
1019 H 70.1762 91.2831 97.7886 H 0.0 **** 0.0
1020 H 76.178 92.9302 94.8871 H 0.0 **** 0.0
1021 H 76.6345 93.2133 96.5399 H 0.0 **** 0.0
1022 H 74.9255 92.8608 96.1008 H 0.0 **** 0.0
1023 H 79.3734 91.8801 96.8191 H 0.0 **** 0.0
1024 H 78.521 92.6852 95.4203 H 0.0 **** 0.0
1025 H 79.5648 91.3401 95.0852 H 0.0 **** 0.0
1026 H 81.1881 89.517 96.2256 H 0.0 **** 0.0
1027 H 81.7093 86.5133 100.938 H 0.0 **** 0.0
1028 H 82.1026 88.0218 100.007 H 0.0 **** 0.0
1029 H 83.0826 86.6408 99.605 H 0.0 **** 0.0
1030 H 81.7117 83.0536 98.2768 H 0.0 **** 0.0
1031 H 82.5434 84.0927 99.6056 H 0.0 **** 0.0
1032 H 82.6821 84.5573 97.8924 H 0.0 **** 0.0
1033 H 81.145 81.7248 94.9434 H 0.0 **** 0.0
1034 H 77.3111 85.7562 91.6348 H 0.0 **** 0.0
1035 H 84.514 74.2345 89.361 H 0.0 **** 0.0
1036 H 85.6138 75.2064 88.2834 H 0.0 **** 0.0
1037 H 83.9545 74.9889 87.7891 H 0.0 **** 0.0
1038 H 87.0909 76.4095 89.7083 H 0.0 **** 0.0
1039 H 87.0663 78.2128 89.6798 H 0.0 **** 0.0
1040 H 86.5531 77.3665 88.2166 H 0.0 **** 0.0
1041 C 57.9265 67.6671 70.154 C 0.0 **** 0.0
1042 C 58.6491 68.8346 69.9429 C 0.0 **** 0.0
1043 C 59.8406 68.8586 69.1563 C 0.0 **** 0.0
1044 C 60.1827 67.7592 68.3635 C 0.0 **** 0.0
1045 C 59.2841 66.6515 68.3038 C 0.0 **** 0.0
1046 C 58.1687 66.5694 69.246 C 0.0 **** 0.0
1047 C 61.5394 67.6842 67.6553 C 0.0 **** 0.0
1048 C 62.4894 68.8599 67.8796 C 0.0 **** 0.0
1049 C 62.1215 69.9765 68.6022 C 0.0 **** 0.0
1050 C 60.7373 70.1129 69.1904 C 0.0 **** 0.0
1051 C 63.0319 71.0489 68.6976 C 0.0 **** 0.0
1052 C 64.392 70.9464 68.2465 C 0.0 **** 0.0
1053 C 64.767 69.7962 67.573 C 0.0 **** 0.0
1054 C 63.7845 68.8462 67.25 C 0.0 **** 0.0
1055 C 64.0929 67.8548 66.3327 C 0.0 **** 0.0
1056 C 65.3514 67.6426 65.857 C 0.0 **** 0.0
1057 C 66.407 68.3283 66.4699 C 0.0 **** 0.0
1058 C 66.1184 69.5569 67.1103 C 0.0 **** 0.0
1059 C 67.7831 67.6623 66.5102 C 0.0 **** 0.0
1060 C 67.8108 66.2249 65.912 C 0.0 **** 0.0
1061 C 66.7817 65.9901 64.8507 C 0.0 **** 0.0
1062 C 65.554 66.683 64.8541 C 0.0 **** 0.0
1063 C 67.6894 65.1052 67.0189 C 0.0 **** 0.0
1064 C 68.8205 65.241 68.0928 C 0.0 **** 0.0
1065 C 69.4455 66.6084 68.1341 C 0.0 **** 0.0
1066 C 68.3276 67.6988 67.9647 C 0.0 **** 0.0
1067 C 64.6257 66.4407 63.7885 C 0.0 **** 0.0
1068 C 64.8016 65.3186 62.9197 C 0.0 **** 0.0
1069 C 65.9622 64.4822 63.0501 C 0.0 **** 0.0
1070 C 66.9738 64.8946 63.9748 C 0.0 **** 0.0
1071 C 65.9739 63.1355 62.3334 C 0.0 **** 0.0
1072 C 65.0994 62.8998 61.1546 C 0.0 **** 0.0
1073 C 64.0617 63.8483 60.928 C 0.0 **** 0.0
1074 C 63.7396 64.8665 61.9781 C 0.0 **** 0.0
1075 C 63.3164 63.9238 59.629 C 0.0 **** 0.0
1076 C 63.1804 62.4713 59.0904 C 0.0 **** 0.0
1077 C 64.5529 61.8083 59.0074 C 0.0 **** 0.0
1078 C 65.3879 61.923 60.1557 C 0.0 **** 0.0
1079 N 66.6134 61.3439 60.1273 N 0.0 **** 0.0
1080 C 67.0864 60.5825 59.0954 C 0.0 **** 0.0
1081 C 66.2696 60.4281 57.9554 C 0.0 **** 0.0
1082 C 65.0444 61.0998 57.8988 C 0.0 **** 0.0
1083 C 64.1368 60.9211 56.6767 C 0.0 **** 0.0
1084 C 64.9093 60.4486 55.4512 C 0.0 **** 0.0
1085 C 65.834 59.2588 55.7511 C 0.0 **** 0.0
1086 C 66.8658 59.6993 56.7943 C 0.0 **** 0.0
1087 C 67.7898 58.5767 57.2384 C 0.0 **** 0.0
1088 C 68.828 59.0626 58.2556 C 0.0 **** 0.0
1089 C 68.4084 60.0477 59.1932 C 0.0 **** 0.0
1090 C 69.2315 60.3676 60.274 C 0.0 **** 0.0
1091 C 70.4278 59.6539 60.4622 C 0.0 **** 0.0
1092 C 70.9172 58.8092 59.4518 C 0.0 **** 0.0
1093 C 70.1012 58.4801 58.3519 C 0.0 **** 0.0
1094 C 57.3104 65.354 69.3097 C 0.0 **** 0.0
1095 C 58.1104 64.1707 69.9402 C 0.0 **** 0.0
1096 C 56.9799 67.4633 71.3725 C 0.0 **** 0.0
1097 C 59.5022 65.5841 67.2397 C 0.0 **** 0.0
1098 C 58.2727 69.9772 70.8104 C 0.0 **** 0.0
1099 C 62.5985 72.3403 69.3491 C 0.0 **** 0.0
1100 C 65.3951 72.0328 68.5401 C 0.0 **** 0.0
1101 O 67.1508 70.5406 67.2043 O 0.0 **** 0.0
1102 C 70.5916 66.8399 67.1071 C 0.0 **** 0.0
1103 C 69.8409 64.096 68.1035 C 0.0 **** 0.0
1104 O 68.1784 64.2124 64.1461 O 0.0 **** 0.0
1105 O 63.5117 67.274 63.5938 O 0.0 **** 0.0
1106 O 62.5957 65.3025 62.078 O 0.0 **** 0.0
1107 O 66.7526 62.2693 62.6923 O 0.0 **** 0.0
1108 C 70.6204 57.6274 57.192 C 0.0 **** 0.0
1109 C 72.316 58.2713 59.6287 C 0.0 **** 0.0
1110 H 62.059 66.7717 67.997 H 0.0 **** 0.0
1111 H 61.3589 67.7024 66.5663 H 0.0 **** 0.0
1112 H 60.1017 70.8976 68.6419 H 0.0 **** 0.0
1113 H 60.9275 70.3637 70.2712 H 0.0 **** 0.0
1114 H 63.3549 67.1038 66.0442 H 0.0 **** 0.0
1115 H 66.6748 65.2142 67.4799 H 0.0 **** 0.0
1116 H 67.7908 64.0833 66.589 H 0.0 **** 0.0
1117 H 68.258 65.0225 69.0335 H 0.0 **** 0.0
1118 H 69.9455 66.7526 69.1467 H 0.0 **** 0.0
1119 H 68.7788 68.7173 68.1558 H 0.0 **** 0.0
1120 H 67.4843 67.5232 68.7108 H 0.0 **** 0.0
1121 H 62.3174 64.3659 59.8546 H 0.0 **** 0.0
1122 H 63.8499 64.5814 58.9396 H 0.0 **** 0.0
1123 H 62.521 62.476 58.1736 H 0.0 **** 0.0
1124 H 62.6116 61.8791 59.7971 H 0.0 **** 0.0
1125 H 63.2685 60.2056 56.846 H 0.0 **** 0.0
1126 H 63.7518 61.9165 56.3879 H 0.0 **** 0.0
1127 H 65.5484 61.2511 55.1046 H 0.0 **** 0.0
1128 H 64.147 60.2021 54.6748 H 0.0 **** 0.0
1129 H 66.3167 58.8986 54.8121 H 0.0 **** 0.0
1130 H 65.1976 58.3991 56.1238 H 0.0 **** 0.0
1131 H 67.5471 60.3928 56.2377 H 0.0 **** 0.0
1132 H 67.177 57.7773 57.7429 H 0.0 **** 0.0
1133 H 68.2038 58.1164 56.2998 H 0.0 **** 0.0
1134 H 68.9253 61.1236 60.9632 H 0.0 **** 0.0
1135 H 70.9447 59.9218 61.3618 H 0.0 **** 0.0
1136 H 56.8882 65.1273 68.3082 H 0.0 **** 0.0
1137 H 56.3944 65.4804 69.9051 H 0.0 **** 0.0
1138 H 58.771 63.6571 69.2069 H 0.0 **** 0.0
1139 H 57.387 63.4058 70.3167 H 0.0 **** 0.0
1140 H 58.7762 64.5127 70.801 H 0.0 **** 0.0
1141 H 56.8817 68.3362 72.0229 H 0.0 **** 0.0
1142 H 57.3936 66.5631 71.9488 H 0.0 **** 0.0
1143 H 55.9455 67.1722 71.0154 H 0.0 **** 0.0
1144 H 60.4375 65.0771 67.5161 H 0.0 **** 0.0
1145 H 59.6216 66.0088 66.2479 H 0.0 **** 0.0
1146 H 58.6679 64.8179 67.1406 H 0.0 **** 0.0
1147 H 58.7384 70.9685 70.5445 H 0.0 **** 0.0
1148 H 58.5685 69.7566 71.8268 H 0.0 **** 0.0
1149 H 57.1946 70.2245 70.7871 H 0.0 **** 0.0
1150 H 62.9565 73.2366 68.7964 H 0.0 **** 0.0
1151 H 62.8645 72.3853 70.4059 H 0.0 **** 0.0
1152 H 61.4965 72.5324 69.3715 H 0.0 **** 0.0
1153 H 66.3028 71.6294 69.009 H 0.0 **** 0.0
1154 H 65.034 72.8688 69.1905 H 0.0 **** 0.0
1155 H 65.6806 72.4995 67.6061 H 0.0 **** 0.0
1156 H 67.9496 70.2792 66.6323 H 0.0 **** 0.0
1157 H 71.4129 66.1718 67.1899 H 0.0 **** 0.0
1158 H 70.9887 67.8789 67.2646 H 0.0 **** 0.0
1159 H 70.2344 66.8332 66.0182 H 0.0 **** 0.0
1160 H 69.3059 63.1771 68.3484 H 0.0 **** 0.0
1161 H 70.573 64.2175 68.8813 H 0.0 **** 0.0
1162 H 70.3512 64.0389 67.1498 H 0.0 **** 0.0
1163 H 68.5362 63.7499 63.3478 H 0.0 **** 0.0
1164 H 63.4363 67.5561 62.6037 H 0.0 **** 0.0
1165 H 69.8448 56.8412 56.9767 H 0.0 **** 0.0
1166 H 71.6067 57.1081 57.4202 H 0.0 **** 0.0
1167 H 70.7806 58.3253 56.2955 H 0.0 **** 0.0
1168 H 72.3677 57.1447 59.6234 H 0.0 **** 0.0
1169 H 72.7103 58.5825 60.6301 H 0.0 **** 0.0
1170 H 72.9647 58.7099 58.8743 H 0.0 **** 0.0
1171 C 42.8653 15.6986 20.9896 C 0.0 **** 0.0
1172 C 43.7382 16.6397 20.4693 C 0.0 **** 0.0
1173 C 43.3091 17.5717 19.4919 C 0.0 **** 0.0
1174 C 41.9673 17.5265 19.0449 C 0.0 **** 0.0
1175 C 41.0994 16.5384 19.5156 C 0.0 **** 0.0
1176 C 41.5363 15.7122 20.5731 C 0.0 **** 0.0
1177 C 41.4967 18.4809 17.9555 C 0.0 **** 0.0
1178 C 42.4773 19.5155 17.4298 C 0.0 **** 0.0
1179 C 43.7917 19.5437 17.8874 C 0.0 **** 0.0
1180 C 44.2649 18.6227 18.9874 C 0.0 **** 0.0
1181 C 44.7024 20.4006 17.2657 C 0.0 **** 0.0
1182 C 44.3252 21.1644 16.0979 C 0.0 **** 0.0
1183 C 42.9467 21.2897 15.7584 C 0.0 **** 0.0
1184 C 42.0144 20.4779 16.4611 C 0.0 **** 0.0
1185 C 40.6387 20.6315 16.1264 C 0.0 **** 0.0
1186 C 40.1903 21.3116 14.9778 C 0.0 **** 0.0
1187 C 41.1549 21.894 14.1382 C 0.0 **** 0.0
1188 C 42.4941 22.0501 14.6359 C 0.0 **** 0.0
1189 C 40.817 22.2389 12.6896 C 0.0 **** 0.0
1190 C 39.4986 21.5345 12.2379 C 0.0 **** 0.0
1191 C 38.4427 21.57 13.3047 C 0.0 **** 0.0
1192 C 38.8141 21.4335 14.6673 C 0.0 **** 0.0
1193 C 39.7179 20.1529 11.658 C 0.0 **** 0.0
1194 C 41.0508 19.5011 12.0849 C 0.0 **** 0.0
1195 C 42.216 20.3209 11.6783 C 0.0 **** 0.0
1196 C 41.9237 21.8428 11.7035 C 0.0 **** 0.0
1197 C 37.776 21.4551 15.6508 C 0.0 **** 0.0
1198 C 36.3913 21.3834 15.2758 C 0.0 **** 0.0
1199 C 36.06 21.5594 13.926 C 0.0 **** 0.0
1200 C 37.0968 21.6549 12.9351 C 0.0 **** 0.0
1201 C 34.5959 21.7413 13.5876 C 0.0 **** 0.0
1202 C 33.5724 21.3297 14.542 C 0.0 **** 0.0
1203 C 33.9563 20.8857 15.8053 C 0.0 **** 0.0
1204 C 35.3557 21.0318 16.2388 C 0.0 **** 0.0
1205 C 32.9863 20.4716 16.9012 C 0.0 **** 0.0
1206 C 31.6962 20.0391 16.3404 C 0.0 **** 0.0
1207 C 31.2259 20.8661 15.1789 C 0.0 **** 0.0
1208 C 32.1586 21.4321 14.2822 C 0.0 **** 0.0
1209 N 31.7157 22.1085 13.1933 N 0.0 **** 0.0
1210 C 30.4013 22.228 12.8317 C 0.0 **** 0.0
1211 C 29.4042 21.602 13.6444 C 0.0 **** 0.0
1212 C 29.8179 20.9266 14.8433 C 0.0 **** 0.0
1213 C 28.7599 20.2663 15.7395 C 0.0 **** 0.0
1214 C 27.2643 20.5785 15.4455 C 0.0 **** 0.0
1215 C 27.0815 20.6986 13.9291 C 0.0 **** 0.0
1216 C 27.9585 21.8282 13.3811 C 0.0 **** 0.0
1217 C 27.6763 22.0598 11.899 C 0.0 **** 0.0
1218 C 28.6527 23.0091 11.2298 C 0.0 **** 0.0
1219 C 29.9949 22.9883 11.7005 C 0.0 **** 0.0
1220 C 30.8871 23.8723 11.0948 C 0.0 **** 0.0
1221 C 30.4564 24.7191 10.0347 C 0.0 **** 0.0
1222 C 29.168 24.6689 9.50274 C 0.0 **** 0.0
1223 C 28.2492 23.8406 10.1228 C 0.0 **** 0.0
1224 C 40.5292 14.8509 21.2722 C 0.0 **** 0.0
1225 C 40.3637 13.4334 20.6358 C 0.0 **** 0.0
1226 C 43.3519 14.6653 22.0383 C 0.0 **** 0.0
1227 C 39.6949 16.3507 18.9005 C 0.0 **** 0.0
1228 C 45.1003 16.8615 21.1387 C 0.0 **** 0.0
1229 C 46.1044 20.6033 17.7928 C 0.0 **** 0.0
1230 C 45.411 21.7986 15.2453 C 0.0 **** 0.0
1231 O 43.2939 23.1207 14.2359 O 0.0 **** 0.0
1232 C 42.8239 19.9057 10.3213 C 0.0 **** 0.0
1233 C 41.0534 18.0417 11.599 C 0.0 **** 0.0
1234 O 36.8163 21.6522 11.542 O 0.0 **** 0.0
1235 O 38.1574 21.4689 16.9742 O 0.0 **** 0.0
1236 O 35.6064 20.8514 17.4138 O 0.0 **** 0.0
1237 O 34.2512 22.2618 12.5463 O 0.0 **** 0.0
1238 C 26.8335 23.7723 9.62317 C 0.0 **** 0.0
1239 C 28.8878 25.58 8.31739 C 0.0 **** 0.0
1240 H 41.1203 17.8757 17.1017 H 0.0 **** 0.0
1241 H 40.616 18.9943 18.366 H 0.0 **** 0.0
1242 H 44.6124 19.2266 19.8314 H 0.0 **** 0.0
1243 H 45.1319 18.0948 18.5732 H 0.0 **** 0.0
1244 H 39.9112 20.05 16.6284 H 0.0 **** 0.0
1245 H 38.8407 19.4929 11.8885 H 0.0 **** 0.0
1246 H 39.7211 20.2423 10.5801 H 0.0 **** 0.0
1247 H 41.0314 19.4208 13.1971 H 0.0 **** 0.0
1248 H 42.9977 20.1419 12.46 H 0.0 **** 0.0
1249 H 41.6565 22.2759 10.6959 H 0.0 **** 0.0
1250 H 42.8952 22.3224 11.938 H 0.0 **** 0.0
1251 H 33.394 19.607 17.4461 H 0.0 **** 0.0
1252 H 32.8709 21.2932 17.6079 H 0.0 **** 0.0
1253 H 30.9082 19.9573 17.1519 H 0.0 **** 0.0
1254 H 31.7764 19.0163 15.9383 H 0.0 **** 0.0
1255 H 28.7912 19.1274 15.6847 H 0.0 **** 0.0
1256 H 28.8894 20.5998 16.7831 H 0.0 **** 0.0
1257 H 27.0342 21.5589 15.8915 H 0.0 **** 0.0
1258 H 26.5807 19.8433 15.8284 H 0.0 **** 0.0
1259 H 26.0239 20.9209 13.6746 H 0.0 **** 0.0
1260 H 27.3146 19.6954 13.3978 H 0.0 **** 0.0
1261 H 27.6441 22.7422 13.9812 H 0.0 **** 0.0
1262 H 27.7136 21.0519 11.4281 H 0.0 **** 0.0
1263 H 26.676 22.4597 11.8462 H 0.0 **** 0.0
1264 H 31.9482 23.928 11.369 H 0.0 **** 0.0
1265 H 31.176 25.3659 9.55749 H 0.0 **** 0.0
1266 H 39.5519 15.3811 21.309 H 0.0 **** 0.0
1267 H 40.734 14.7547 22.4079 H 0.0 **** 0.0
1268 H 40.9191 12.6736 21.2151 H 0.0 **** 0.0
1269 H 40.7109 13.4372 19.5864 H 0.0 **** 0.0
1270 H 39.29 13.1395 20.5822 H 0.0 **** 0.0
1271 H 44.408 14.329 21.8668 H 0.0 **** 0.0
1272 H 42.8283 13.6983 22.1084 H 0.0 **** 0.0
1273 H 43.2548 15.0619 23.0833 H 0.0 **** 0.0
1274 H 39.1041 15.5075 19.2349 H 0.0 **** 0.0
1275 H 39.8476 16.2739 17.8356 H 0.0 **** 0.0
1276 H 39.1197 17.294 19.1562 H 0.0 **** 0.0
1277 H 45.209 17.9412 21.4392 H 0.0 **** 0.0
1278 H 45.9117 16.5269 20.4625 H 0.0 **** 0.0
1279 H 45.2518 16.2991 22.1205 H 0.0 **** 0.0
1280 H 46.3699 21.7111 17.7442 H 0.0 **** 0.0
1281 H 46.8573 20.0199 17.2038 H 0.0 **** 0.0
1282 H 46.2681 20.2749 18.8202 H 0.0 **** 0.0
1283 H 45.3086 21.6063 14.1839 H 0.0 **** 0.0
1284 H 46.3879 21.3817 15.4234 H 0.0 **** 0.0
1285 H 45.4407 22.8687 15.2808 H 0.0 **** 0.0
1286 H 42.7858 23.7587 13.6342 H 0.0 **** 0.0
1287 H 43.3614 18.9151 10.3815 H 0.0 **** 0.0
1288 H 43.5277 20.685 9.92292 H 0.0 **** 0.0
1289 H 42.0688 19.8785 9.53932 H 0.0 **** 0.0
1290 H 40.103 17.5205 12.0202 H 0.0 **** 0.0
1291 H 41.9244 17.4733 11.9841 H 0.0 **** 0.0
1292 H 41.0716 17.9688 10.494 H 0.0 **** 0.0
1293 H 35.9293 21.2399 11.2599 H 0.0 **** 0.0
1294 H 37.5003 21.9415 17.5736 H 0.0 **** 0.0
1295 H 26.1542 24.2263 10.3159 H 0.0 **** 0.0
1296 H 26.563 22.7324 9.42774 H 0.0 **** 0.0
1297 H 26.7037 24.2765 8.67755 H 0.0 **** 0.0
1298 H 28.4695 25.0286 7.43242 H 0.0 **** 0.0
1299 H 29.762 26.1161 7.9302 H 0.0 **** 0.0
1300 H 28.1053 26.3528 8.60412 H 0.0 **** 0.0
1301 C 38.5372 104.856 39.6967 C 0.0 **** 0.0
1302 C 37.3773 104.172 39.2688 C 0.0 **** 0.0
1303 C 36.4184 103.685 40.2155 C 0.0 **** 0.0
1304 C 36.6617 103.857 41.566 C 0.0 **** 0.0
1305 C 37.8634 104.502 42.0145 C 0.0 **** 0.0
1306 C 38.783 105.08 41.0824 C 0.0 **** 0.0
1307 C 35.6747 103.415 42.6158 C 0.0 **** 0.0
1308 C 34.409 102.679 42.1386 C 0.0 **** 0.0
1309 C 34.2407 102.429 40.7648 C 0.0 **** 0.0
1310 C 35.221 102.929 39.7771 C 0.0 **** 0.0
1311 C 33.2632 101.567 40.3153 C 0.0 **** 0.0
1312 C 32.3884 100.986 41.2479 C 0.0 **** 0.0
1313 C 32.3894 101.441 42.5982 C 0.0 **** 0.0
1314 C 33.4105 102.225 43.0431 C 0.0 **** 0.0
1315 C 33.4536 102.594 44.4227 C 0.0 **** 0.0
1316 C 32.5894 102.005 45.3869 C 0.0 **** 0.0
1317 C 31.6278 101.028 44.8867 C 0.0 **** 0.0
1318 C 31.3751 101.011 43.5136 C 0.0 **** 0.0
1319 C 30.8433 100.079 45.8468 C 0.0 **** 0.0
1320 C 31.3488 100.24 47.2994 C 0.0 **** 0.0
1321 C 31.9513 101.576 47.702 C 0.0 **** 0.0
1322 C 32.6438 102.385 46.7458 C 0.0 **** 0.0
1323 C 32.2265 99.0802 47.8291 C 0.0 **** 0.0
1324 C 33.1495 98.5713 46.6977 C 0.0 **** 0.0
1325 C 32.3827 97.9761 45.5766 C 0.0 **** 0.0
1326 C 30.9817 98.6224 45.3947 C 0.0 **** 0.0
1327 C 33.1709 103.623 47.1646 C 0.0 **** 0.0
1328 C 33.2851 103.953 48.5566 C 0.0 **** 0.0
1329 C 32.7496 103.009 49.4909 C 0.0 **** 0.0
1330 C 31.9768 101.936 49.0589 C 0.0 **** 0.0
1331 C 33.0477 103.187 50.9216 C 0.0 **** 0.0
1332 C 33.7603 104.383 51.4943 C 0.0 **** 0.0
1333 C 34.2169 105.329 50.6001 C 0.0 **** 0.0
1334 C 34.01 105.149 49.1113 C 0.0 **** 0.0
1335 C 34.97 106.534 51.1116 C 0.0 **** 0.0
1336 C 34.7514 106.879 52.6083 C 0.0 **** 0.0
1337 C 34.5189 105.634 53.5043 C 0.0 **** 0.0
1338 C 34.002 104.485 52.8819 C 0.0 **** 0.0
1339 N 33.6771 103.424 53.6175 N 0.0 **** 0.0
1340 C 33.8826 103.338 54.9274 C 0.0 **** 0.0
1341 C 34.3737 104.442 55.639 C 0.0 **** 0.0
1342 C 34.6591 105.643 54.903 C 0.0 **** 0.0
1343 C 35.1384 106.897 55.6375 C 0.0 **** 0.0
1344 C 34.8356 106.879 57.1415 C 0.0 **** 0.0
1345 C 35.2049 105.55 57.7774 C 0.0 **** 0.0
1346 C 34.308 104.422 57.1598 C 0.0 **** 0.0
1347 C 34.6272 103.007 57.7138 C 0.0 **** 0.0
1348 C 33.9574 101.918 56.9371 C 0.0 **** 0.0
1349 C 33.6156 102.127 55.6029 C 0.0 **** 0.0
1350 C 33.149 101.037 54.8443 C 0.0 **** 0.0
1351 C 33.1431 99.763 55.3342 C 0.0 **** 0.0
1352 C 33.5553 99.4952 56.65 C 0.0 **** 0.0
1353 C 34.0676 100.571 57.4293 C 0.0 **** 0.0
1354 C 40.0038 105.894 41.5583 C 0.0 **** 0.0
1355 C 41.2216 104.993 41.9269 C 0.0 **** 0.0
1356 C 39.6717 105.194 38.7085 C 0.0 **** 0.0
1357 C 38.0521 104.638 43.5121 C 0.0 **** 0.0
1358 C 37.1932 103.944 37.8095 C 0.0 **** 0.0
1359 C 33.0834 101.321 38.8289 C 0.0 **** 0.0
1360 C 31.6863 99.7406 40.8757 C 0.0 **** 0.0
1361 O 30.1561 100.547 43.0036 O 0.0 **** 0.0
1362 C 32.2331 96.4105 45.63 C 0.0 **** 0.0
1363 C 34.2546 97.5949 47.2309 C 0.0 **** 0.0
1364 O 31.1836 101.266 49.987 O 0.0 **** 0.0
1365 O 33.3868 104.649 46.2386 O 0.0 **** 0.0
1366 O 34.5078 105.992 48.357 O 0.0 **** 0.0
1367 O 32.6689 102.321 51.7051 O 0.0 **** 0.0
1368 C 34.7893 100.277 58.7669 C 0.0 **** 0.0
1369 C 33.4567 98.0875 57.0939 C 0.0 **** 0.0
1370 H 36.2056 102.697 43.2667 H 0.0 **** 0.0
1371 H 35.3767 104.307 43.2031 H 0.0 **** 0.0
1372 H 34.7022 103.564 39.1092 H 0.0 **** 0.0
1373 H 35.6664 102.063 39.2782 H 0.0 **** 0.0
1374 H 34.293 103.172 44.7212 H 0.0 **** 0.0
1375 H 32.8505 99.451 48.7079 H 0.0 **** 0.0
1376 H 31.6066 98.2277 48.1579 H 0.0 **** 0.0
1377 H 33.7209 99.451 46.3014 H 0.0 **** 0.0
1378 H 33.008 98.161 44.6635 H 0.0 **** 0.0
1379 H 30.2004 98.0413 45.9601 H 0.0 **** 0.0
1380 H 30.7514 98.459 44.3266 H 0.0 **** 0.0
1381 H 36.0527 106.408 50.9179 H 0.0 **** 0.0
1382 H 34.683 107.469 50.5478 H 0.0 **** 0.0
1383 H 33.7917 107.49 52.6368 H 0.0 **** 0.0
1384 H 35.5259 107.582 52.9521 H 0.0 **** 0.0
1385 H 36.2523 106.886 55.5362 H 0.0 **** 0.0
1386 H 34.6478 107.743 55.1844 H 0.0 **** 0.0
1387 H 33.7205 107.02 57.3105 H 0.0 **** 0.0
1388 H 35.4134 107.66 57.6234 H 0.0 **** 0.0
1389 H 35.0145 105.64 58.8635 H 0.0 **** 0.0
1390 H 36.2962 105.24 57.5759 H 0.0 **** 0.0
1391 H 33.2346 104.669 57.4983 H 0.0 **** 0.0
1392 H 35.7526 102.861 57.6021 H 0.0 **** 0.0
1393 H 34.3521 102.958 58.8344 H 0.0 **** 0.0
1394 H 32.8924 101.145 53.8008 H 0.0 **** 0.0
1395 H 32.7707 98.9639 54.707 H 0.0 **** 0.0
1396 H 39.6876 106.55 42.4045 H 0.0 **** 0.0
1397 H 40.3336 106.706 40.8729 H 0.0 **** 0.0
1398 H 41.0418 104.491 42.8812 H 0.0 **** 0.0
1399 H 42.1081 105.637 42.0669 H 0.0 **** 0.0
1400 H 41.4244 104.212 41.1995 H 0.0 **** 0.0
1401 H 39.7855 106.331 38.7345 H 0.0 **** 0.0
1402 H 39.4853 104.899 37.6706 H 0.0 **** 0.0
1403 H 40.5831 104.718 39.0244 H 0.0 **** 0.0
1404 H 38.0915 103.62 43.9961 H 0.0 **** 0.0
1405 H 37.2881 105.3 44.0079 H 0.0 **** 0.0
1406 H 38.9966 105.081 43.8541 H 0.0 **** 0.0
1407 H 36.2288 103.48 37.4958 H 0.0 **** 0.0
1408 H 37.959 103.26 37.4286 H 0.0 **** 0.0
1409 H 37.2289 104.937 37.305 H 0.0 **** 0.0
1410 H 32.0348 101.071 38.5688 H 0.0 **** 0.0
1411 H 33.8026 100.612 38.4344 H 0.0 **** 0.0
1412 H 33.2513 102.217 38.1956 H 0.0 **** 0.0
1413 H 31.6427 98.9763 41.6832 H 0.0 **** 0.0
1414 H 32.1414 99.1333 40.0706 H 0.0 **** 0.0
1415 H 30.6895 100.001 40.4628 H 0.0 **** 0.0
1416 H 29.4332 100.399 43.6655 H 0.0 **** 0.0
1417 H 33.2083 95.9052 45.3572 H 0.0 **** 0.0
1418 H 31.4999 96.0977 44.8789 H 0.0 **** 0.0
1419 H 31.8752 96.0466 46.6226 H 0.0 **** 0.0
1420 H 34.8886 98.1625 47.9621 H 0.0 **** 0.0
1421 H 34.9939 97.3196 46.406 H 0.0 **** 0.0
1422 H 33.8975 96.6889 47.8003 H 0.0 **** 0.0
1423 H 30.373 100.8 49.6627 H 0.0 **** 0.0
1424 H 33.1728 105.566 46.5856 H 0.0 **** 0.0
1425 H 34.1305 100.499 59.6523 H 0.0 **** 0.0
1426 H 35.773 100.788 58.8086 H 0.0 **** 0.0
1427 H 35.0904 99.2148 58.848 H 0.0 **** 0.0
1428 H 34.3757 97.5332 56.7839 H 0.0 **** 0.0
1429 H 32.6125 97.571 56.605 H 0.0 **** 0.0
1430 H 33.2742 97.9997 58.1784 H 0.0 **** 0.0
1431 C 87.0211 31.2105 58.7135 C 0.0 **** 0.0
1432 C 86.9058 31.944 59.8976 C 0.0 **** 0.0
1433 C 85.8221 32.8334 60.1355 C 0.0 **** 0.0
1434 C 85.1276 33.3357 59.0525 C 0.0 **** 0.0
1435 C 85.392 32.7817 57.7783 C 0.0 **** 0.0
1436 C 86.1813 31.6153 57.6163 C 0.0 **** 0.0
1437 C 84.0815 34.3999 59.2096 C 0.0 **** 0.0
1438 C 83.4736 34.5445 60.6046 C 0.0 **** 0.0
1439 C 84.0988 33.982 61.7023 C 0.0 **** 0.0
1440 C 85.462 33.3035 61.5386 C 0.0 **** 0.0
1441 C 83.5992 34.1446 63.0199 C 0.0 **** 0.0
1442 C 82.3688 34.8409 63.2608 C 0.0 **** 0.0
1443 C 81.6814 35.3562 62.1154 C 0.0 **** 0.0
1444 C 82.2322 35.2195 60.7906 C 0.0 **** 0.0
1445 C 81.5011 35.6982 59.6818 C 0.0 **** 0.0
1446 C 80.2667 36.2827 59.8209 C 0.0 **** 0.0
1447 C 79.8507 36.688 61.0776 C 0.0 **** 0.0
1448 C 80.4092 35.9743 62.221 C 0.0 **** 0.0
1449 C 78.5975 37.4999 61.1769 C 0.0 **** 0.0
1450 C 78.2644 38.2744 59.8617 C 0.0 **** 0.0
1451 C 78.3422 37.3146 58.7381 C 0.0 **** 0.0
1452 C 79.3893 36.3999 58.7102 C 0.0 **** 0.0
1453 C 78.9982 39.6072 59.6537 C 0.0 **** 0.0
1454 C 79.2992 40.3023 61.0001 C 0.0 **** 0.0
1455 C 78.3831 39.8952 62.063 C 0.0 **** 0.0
1456 C 78.5769 38.4079 62.4049 C 0.0 **** 0.0
1457 C 79.3751 35.382 57.7137 C 0.0 **** 0.0
1458 C 78.471 35.4601 56.6036 C 0.0 **** 0.0
1459 C 77.5582 36.5262 56.5072 C 0.0 **** 0.0
1460 C 77.3736 37.3454 57.6596 C 0.0 **** 0.0
1461 C 76.7321 36.6327 55.2988 C 0.0 **** 0.0
1462 C 76.5835 35.5101 54.3649 C 0.0 **** 0.0
1463 C 77.5482 34.498 54.3964 C 0.0 **** 0.0
1464 C 78.623 34.593 55.4169 C 0.0 **** 0.0
1465 C 77.622 33.4506 53.302 C 0.0 **** 0.0
1466 C 76.4981 33.4661 52.2636 C 0.0 **** 0.0
1467 C 75.3401 34.4466 52.516 C 0.0 **** 0.0
1468 C 75.5016 35.4493 53.4879 C 0.0 **** 0.0
1469 N 74.5737 36.4496 53.5936 N 0.0 **** 0.0
1470 C 73.4233 36.4743 52.8602 C 0.0 **** 0.0
1471 C 73.1918 35.4117 51.9522 C 0.0 **** 0.0
1472 C 74.1727 34.4515 51.6912 C 0.0 **** 0.0
1473 C 74.0226 33.5148 50.4684 C 0.0 **** 0.0
1474 C 72.5476 33.2933 49.931 C 0.0 **** 0.0
1475 C 71.8379 34.6701 49.8938 C 0.0 **** 0.0
1476 C 71.8279 35.306 51.3136 C 0.0 **** 0.0
1477 C 71.0405 36.658 51.2142 C 0.0 **** 0.0
1478 C 71.3985 37.7396 52.2143 C 0.0 **** 0.0
1479 C 72.5764 37.5521 52.9975 C 0.0 **** 0.0
1480 C 72.9596 38.5832 53.8384 C 0.0 **** 0.0
1481 C 72.206 39.7259 53.9656 C 0.0 **** 0.0
1482 C 71.0054 39.8973 53.2586 C 0.0 **** 0.0
1483 C 70.5983 38.9213 52.3356 C 0.0 **** 0.0
1484 C 86.2364 30.8952 56.2328 C 0.0 **** 0.0
1485 C 87.5344 31.1817 55.4594 C 0.0 **** 0.0
1486 C 88.0668 30.1771 58.5588 C 0.0 **** 0.0
1487 C 84.7691 33.3978 56.5532 C 0.0 **** 0.0
1488 C 87.963 31.8786 60.9931 C 0.0 **** 0.0
1489 C 84.3605 33.534 64.239 C 0.0 **** 0.0
1490 C 82.0271 35.2826 64.7034 C 0.0 **** 0.0
1491 O 79.6633 35.7854 63.3861 O 0.0 **** 0.0
1492 C 76.9128 40.3185 61.8855 C 0.0 **** 0.0
1493 C 79.3261 41.808 60.8592 C 0.0 **** 0.0
1494 O 76.2736 38.2041 57.7996 O 0.0 **** 0.0
1495 O 79.9806 34.1457 58.0468 O 0.0 **** 0.0
1496 O 79.7042 34.0725 55.2397 O 0.0 **** 0.0
1497 O 76.3081 37.7253 54.9866 O 0.0 **** 0.0
1498 C 69.4342 39.1862 51.446 C 0.0 **** 0.0
1499 C 70.2767 41.1859 53.4528 C 0.0 **** 0.0
1500 H 84.4646 35.3901 58.8126 H 0.0 **** 0.0
1501 H 83.3185 34.0228 58.5378 H 0.0 **** 0.0
1502 H 85.3903 32.3382 62.135 H 0.0 **** 0.0
1503 H 86.2867 33.8961 61.9963 H 0.0 **** 0.0
1504 H 81.8846 35.5875 58.7045 H 0.0 **** 0.0
1505 H 79.9667 39.4167 59.168 H 0.0 **** 0.0
1506 H 78.4115 40.2494 58.9842 H 0.0 **** 0.0
1507 H 80.3275 39.9853 61.299 H 0.0 **** 0.0
1508 H 78.7919 40.4743 62.9388 H 0.0 **** 0.0
1509 H 77.7537 38.0854 63.03 H 0.0 **** 0.0
1510 H 79.4937 38.2811 63.0227 H 0.0 **** 0.0
1511 H 78.5625 33.4942 52.7254 H 0.0 **** 0.0
1512 H 77.6738 32.4535 53.7716 H 0.0 **** 0.0
1513 H 76.0909 32.4652 52.1921 H 0.0 **** 0.0
1514 H 76.9544 33.7492 51.2182 H 0.0 **** 0.0
1515 H 74.6134 33.9071 49.6068 H 0.0 **** 0.0
1516 H 74.3667 32.5473 50.7647 H 0.0 **** 0.0
1517 H 72.0544 32.5217 50.6104 H 0.0 **** 0.0
1518 H 72.5684 32.9518 48.8726 H 0.0 **** 0.0
1519 H 70.7761 34.528 49.5435 H 0.0 **** 0.0
1520 H 72.366 35.3732 49.1629 H 0.0 **** 0.0
1521 H 71.2667 34.5777 51.9436 H 0.0 **** 0.0
1522 H 71.2053 37.127 50.2421 H 0.0 **** 0.0
1523 H 69.9588 36.3958 51.2851 H 0.0 **** 0.0
1524 H 73.8169 38.4599 54.5112 H 0.0 **** 0.0
1525 H 72.6471 40.4926 54.637 H 0.0 **** 0.0
1526 H 85.4568 31.2068 55.5495 H 0.0 **** 0.0
1527 H 86.1067 29.8319 56.3657 H 0.0 **** 0.0
1528 H 88.462 31.081 56.091 H 0.0 **** 0.0
1529 H 87.4658 32.2146 55.0497 H 0.0 **** 0.0
1530 H 87.7014 30.4522 54.6692 H 0.0 **** 0.0
1531 H 88.9813 30.6542 58.2385 H 0.0 **** 0.0
1532 H 87.804 29.3929 57.8079 H 0.0 **** 0.0
1533 H 88.3011 29.6312 59.5032 H 0.0 **** 0.0
1534 H 83.7856 32.9546 56.3531 H 0.0 **** 0.0
1535 H 85.392 33.3383 55.6892 H 0.0 **** 0.0
1536 H 84.5941 34.453 56.696 H 0.0 **** 0.0
1537 H 87.5383 31.4118 61.9095 H 0.0 **** 0.0
1538 H 88.3091 32.922 61.2003 H 0.0 **** 0.0
1539 H 88.926 31.3213 60.6575 H 0.0 **** 0.0
1540 H 83.753 33.4665 65.1374 H 0.0 **** 0.0
1541 H 85.3212 34.1401 64.4716 H 0.0 **** 0.0
1542 H 84.7089 32.4549 64.1535 H 0.0 **** 0.0
1543 H 81.4155 36.2211 64.8012 H 0.0 **** 0.0
1544 H 82.9493 35.5551 65.2452 H 0.0 **** 0.0
1545 H 81.4702 34.4726 65.2488 H 0.0 **** 0.0
1546 H 78.6655 35.9977 63.3525 H 0.0 **** 0.0
1547 H 76.8223 41.42 61.6154 H 0.0 **** 0.0
1548 H 76.3858 40.2271 62.826 H 0.0 **** 0.0
1549 H 76.4158 39.699 61.124 H 0.0 **** 0.0
1550 H 80.0967 42.1554 60.1733 H 0.0 **** 0.0
1551 H 79.4249 42.3082 61.8118 H 0.0 **** 0.0
1552 H 78.3557 42.2248 60.4336 H 0.0 **** 0.0
1553 H 75.4965 37.914 57.2544 H 0.0 **** 0.0
1554 H 79.6207 33.3714 57.5198 H 0.0 **** 0.0
1555 H 69.8105 39.2121 50.381 H 0.0 **** 0.0
1556 H 68.9733 40.1813 51.6087 H 0.0 **** 0.0
1557 H 68.5674 38.428 51.6249 H 0.0 **** 0.0
1558 H 70.2791 41.7559 52.5396 H 0.0 **** 0.0
1559 H 70.8425 41.852 54.1176 H 0.0 **** 0.0
1560 H 69.2722 41.0197 53.8107 H 0.0 **** 0.0
1561 C 67.2445 93.4998 26.3557 C 0.0 **** 0.0
1562 C 67.5215 94.7205 25.7133 C 0.0 **** 0.0
1563 C 67.1575 95.9793 26.2753 C 0.0 **** 0.0
1564 C 66.5232 95.9918 27.535 C 0.0 **** 0.0
1565 C 66.2112 94.7951 28.1608 C 0.0 **** 0.0
1566 C 66.5552 93.5489 27.5973 C 0.0 **** 0.0
1567 C 66.2585 97.3122 28.2667 C 0.0 **** 0.0
1568 C 66.7213 98.6176 27.5883 C 0.0 **** 0.0
1569 C 67.3199 98.6013 26.3118 C 0.0 **** 0.0
1570 C 67.5505 97.2794 25.5902 C 0.0 **** 0.0
1571 C 67.5054 99.8136 25.5854 C 0.0 **** 0.0
1572 C 67.0509 101.011 26.185 C 0.0 **** 0.0
1573 C 66.8023 101.059 27.579 C 0.0 **** 0.0
1574 C 66.6006 99.837 28.2697 C 0.0 **** 0.0
1575 C 66.4046 99.8756 29.6411 C 0.0 **** 0.0
1576 C 66.3729 101.086 30.3597 C 0.0 **** 0.0
1577 C 66.2344 102.283 29.6469 C 0.0 **** 0.0
1578 C 66.7153 102.293 28.3134 C 0.0 **** 0.0
1579 C 65.9038 103.587 30.3468 C 0.0 **** 0.0
1580 C 65.1048 103.29 31.6864 C 0.0 **** 0.0
1581 C 65.7471 102.173 32.4601 C 0.0 **** 0.0
1582 C 66.3496 101.062 31.7904 C 0.0 **** 0.0
1583 C 63.604 103.069 31.4955 C 0.0 **** 0.0
1584 C 62.9367 104.045 30.4795 C 0.0 **** 0.0
1585 C 63.8354 105.182 30.1216 C 0.0 **** 0.0
1586 C 65.1915 104.71 29.568 C 0.0 **** 0.0
1587 C 66.9552 100.023 32.5463 C 0.0 **** 0.0
1588 C 66.7561 99.9723 33.981 C 0.0 **** 0.0
1589 C 66.0793 101.081 34.5949 C 0.0 **** 0.0
1590 C 65.6081 102.161 33.8365 C 0.0 **** 0.0
1591 C 65.9469 101.107 36.0519 C 0.0 **** 0.0
1592 C 66.5814 100.031 36.8859 C 0.0 **** 0.0
1593 C 67.0482 98.8357 36.2715 C 0.0 **** 0.0
1594 C 67.1544 98.8146 34.8019 C 0.0 **** 0.0
1595 C 67.6601 97.7092 37.0001 C 0.0 **** 0.0
1596 C 67.2795 97.7841 38.4856 C 0.0 **** 0.0
1597 C 67.2102 99.1871 39.0837 C 0.0 **** 0.0
1598 C 66.7887 100.258 38.2389 C 0.0 **** 0.0
1599 N 66.5865 101.486 38.7357 N 0.0 **** 0.0
1600 C 66.7888 101.77 40.0777 C 0.0 **** 0.0
1601 C 67.1425 100.726 40.9915 C 0.0 **** 0.0
1602 C 67.3273 99.4307 40.4798 C 0.0 **** 0.0
1603 C 67.7128 98.2992 41.3954 C 0.0 **** 0.0
1604 C 67.9943 98.7059 42.8392 C 0.0 **** 0.0
1605 C 67.0366 99.7512 43.3561 C 0.0 **** 0.0
1606 C 67.1763 101.016 42.4696 C 0.0 **** 0.0
1607 C 66.0992 102.073 42.8552 C 0.0 **** 0.0
1608 C 66.1529 103.297 41.9214 C 0.0 **** 0.0
1609 C 66.4802 103.063 40.5394 C 0.0 **** 0.0
1610 C 66.4152 104.102 39.6579 C 0.0 **** 0.0
1611 C 65.9349 105.353 40.0088 C 0.0 **** 0.0
1612 C 65.4854 105.59 41.3134 C 0.0 **** 0.0
1613 C 65.7042 104.582 42.3143 C 0.0 **** 0.0
1614 C 66.2556 92.2148 28.3401 C 0.0 **** 0.0
1615 C 64.8227 91.7064 28.1276 C 0.0 **** 0.0
1616 C 67.8438 92.1915 25.8305 C 0.0 **** 0.0
1617 C 65.6211 94.8131 29.5666 C 0.0 **** 0.0
1618 C 68.2306 94.678 24.3613 C 0.0 **** 0.0
1619 C 68.1702 99.8241 24.228 C 0.0 **** 0.0
1620 C 66.4657 102.071 25.2429 C 0.0 **** 0.0
1621 O 67.2573 103.46 27.8108 O 0.0 **** 0.0
1622 C 63.9676 106.273 31.2196 C 0.0 **** 0.0
1623 C 61.5796 104.556 31.0231 C 0.0 **** 0.0
1624 O 65.0378 103.221 34.5139 O 0.0 **** 0.0
1625 O 67.8376 99.1282 31.9892 O 0.0 **** 0.0
1626 O 67.7184 97.8975 34.2706 O 0.0 **** 0.0
1627 O 65.3396 101.981 36.6136 O 0.0 **** 0.0
1628 C 65.4246 104.831 43.751 C 0.0 **** 0.0
1629 C 64.7423 106.85 41.5761 C 0.0 **** 0.0
1630 H 65.1509 97.4185 28.4018 H 0.0 **** 0.0
1631 H 66.8292 97.1733 29.2212 H 0.0 **** 0.0
1632 H 68.618 97.1879 25.3758 H 0.0 **** 0.0
1633 H 66.9406 97.374 24.6509 H 0.0 **** 0.0
1634 H 66.1946 98.9672 30.1844 H 0.0 **** 0.0
1635 H 63.3874 102.004 31.174 H 0.0 **** 0.0
1636 H 63.0594 103.121 32.4109 H 0.0 **** 0.0
1637 H 62.7393 103.409 29.5634 H 0.0 **** 0.0
1638 H 63.3969 105.715 29.2433 H 0.0 **** 0.0
1639 H 65.8213 105.6 29.5572 H 0.0 **** 0.0
1640 H 65.0592 104.443 28.5295 H 0.0 **** 0.0
1641 H 67.3143 96.7072 36.5644 H 0.0 **** 0.0
1642 H 68.7583 97.7955 36.9387 H 0.0 **** 0.0
1643 H 67.9276 97.0896 39.0093 H 0.0 **** 0.0
1644 H 66.2332 97.3944 38.5688 H 0.0 **** 0.0
1645 H 66.8516 97.618 41.45 H 0.0 **** 0.0
1646 H 68.5744 97.6879 41.0895 H 0.0 **** 0.0
1647 H 69.0703 99.031 42.9001 H 0.0 **** 0.0
1648 H 67.8825 97.8138 43.5373 H 0.0 **** 0.0
1649 H 67.2995 99.9168 44.4344 H 0.0 **** 0.0
1650 H 65.9876 99.3585 43.2852 H 0.0 **** 0.0
1651 H 68.2429 101.416 42.6161 H 0.0 **** 0.0
1652 H 65.1168 101.586 42.7769 H 0.0 **** 0.0
1653 H 66.246 102.32 43.9349 H 0.0 **** 0.0
1654 H 66.6623 103.934 38.5981 H 0.0 **** 0.0
1655 H 65.8807 106.119 39.248 H 0.0 **** 0.0
1656 H 66.3865 92.337 29.4385 H 0.0 **** 0.0
1657 H 66.9524 91.4322 28.0371 H 0.0 **** 0.0
1658 H 64.4828 91.8238 27.04 H 0.0 **** 0.0
1659 H 64.1087 92.2001 28.8254 H 0.0 **** 0.0
1660 H 64.833 90.6134 28.3962 H 0.0 **** 0.0
1661 H 68.2827 92.2539 24.8377 H 0.0 **** 0.0
1662 H 67.0868 91.4117 25.6767 H 0.0 **** 0.0
1663 H 68.5823 91.7559 26.5052 H 0.0 **** 0.0
1664 H 64.7114 94.1751 29.5266 H 0.0 **** 0.0
1665 H 65.2865 95.7647 30.0203 H 0.0 **** 0.0
1666 H 66.3272 94.3706 30.2767 H 0.0 **** 0.0
1667 H 68.153 95.588 23.8034 H 0.0 **** 0.0
1668 H 67.6057 94.0448 23.6917 H 0.0 **** 0.0
1669 H 69.3135 94.402 24.43 H 0.0 **** 0.0
1670 H 68.6108 100.822 24.1029 H 0.0 **** 0.0
1671 H 67.3589 99.5053 23.5216 H 0.0 **** 0.0
1672 H 69.0206 99.1052 24.2441 H 0.0 **** 0.0
1673 H 65.6949 101.6 24.6094 H 0.0 **** 0.0
1674 H 67.2344 102.525 24.5801 H 0.0 **** 0.0
1675 H 65.9251 102.907 25.7632 H 0.0 **** 0.0
1676 H 68.0251 103.267 27.1276 H 0.0 **** 0.0
1677 H 62.99 106.76 31.3611 H 0.0 **** 0.0
1678 H 64.621 107.045 30.8338 H 0.0 **** 0.0
1679 H 64.2841 105.865 32.1727 H 0.0 **** 0.0
1680 H 60.8418 103.754 30.9 H 0.0 **** 0.0
1681 H 61.2218 105.346 30.3127 H 0.0 **** 0.0
1682 H 61.5378 104.97 32.0594 H 0.0 **** 0.0
1683 H 65.0746 104.09 34.0544 H 0.0 **** 0.0
1684 H 68.389 99.4712 31.2182 H 0.0 **** 0.0
1685 H 64.4555 104.306 44.0272 H 0.0 **** 0.0
1686 H 65.2957 105.906 43.9702 H 0.0 **** 0.0
1687 H 66.2892 104.528 44.3985 H 0.0 **** 0.0
1688 H 63.6672 106.642 41.9558 H 0.0 **** 0.0
1689 H 64.6564 107.534 40.7016 H 0.0 **** 0.0
1690 H 65.3932 107.434 42.2635 H 0.0 **** 0.0
1691 C 71.8182 53.7718 100.345 C 0.0 **** 0.0
1692 C 70.988 52.6367 100.189 C 0.0 **** 0.0
1693 C 70.1859 52.5057 99.0094 C 0.0 **** 0.0
1694 C 70.0351 53.5867 98.1126 C 0.0 **** 0.0
1695 C 70.799 54.7674 98.3249 C 0.0 **** 0.0
1696 C 71.7264 54.8287 99.4032 C 0.0 **** 0.0
1697 C 69.1119 53.4843 96.926 C 0.0 **** 0.0
1698 C 68.6059 52.1134 96.5347 C 0.0 **** 0.0
1699 C 68.9787 50.9819 97.2988 C 0.0 **** 0.0
1700 C 69.6456 51.1568 98.6448 C 0.0 **** 0.0
1701 C 68.5284 49.672 96.9303 C 0.0 **** 0.0
1702 C 67.6435 49.5414 95.8281 C 0.0 **** 0.0
1703 C 67.362 50.6369 94.9571 C 0.0 **** 0.0
1704 C 67.8409 51.9352 95.3435 C 0.0 **** 0.0
1705 C 67.4127 53.0435 94.5289 C 0.0 **** 0.0
1706 C 66.49 52.9571 93.4444 C 0.0 **** 0.0
1707 C 66.0217 51.6196 93.1202 C 0.0 **** 0.0
1708 C 66.6284 50.5057 93.7483 C 0.0 **** 0.0
1709 C 64.9102 51.3865 92.1219 C 0.0 **** 0.0
1710 C 64.312 52.6298 91.5162 C 0.0 **** 0.0
1711 C 65.3559 53.7603 91.451 C 0.0 **** 0.0
1712 C 66.078 54.0492 92.6437 C 0.0 **** 0.0
1713 C 63.0033 53.1343 92.2057 C 0.0 **** 0.0
1714 C 63.0419 52.8154 93.7017 C 0.0 **** 0.0
1715 C 63.1808 51.3579 93.9941 C 0.0 **** 0.0
1716 C 63.8018 50.5358 92.8161 C 0.0 **** 0.0
1717 C 66.5223 55.4085 92.8253 C 0.0 **** 0.0
1718 C 66.6609 56.2636 91.7069 C 0.0 **** 0.0
1719 C 66.0751 55.9099 90.4769 C 0.0 **** 0.0
1720 C 65.3702 54.663 90.3773 C 0.0 **** 0.0
1721 C 66.2889 56.7971 89.2816 C 0.0 **** 0.0
1722 C 66.5426 58.2646 89.4872 C 0.0 **** 0.0
1723 C 67.113 58.5762 90.7733 C 0.0 **** 0.0
1724 C 67.4395 57.5137 91.7488 C 0.0 **** 0.0
1725 C 67.3669 60.049 91.1723 C 0.0 **** 0.0
1726 C 66.373 60.9255 90.4115 C 0.0 **** 0.0
1727 C 66.5366 60.6492 88.9292 C 0.0 **** 0.0
1728 C 66.5022 59.3106 88.5217 C 0.0 **** 0.0
1729 N 66.4784 59.0631 87.1474 N 0.0 **** 0.0
1730 C 66.5486 60.0698 86.2228 C 0.0 **** 0.0
1731 C 66.7968 61.3608 86.6575 C 0.0 **** 0.0
1732 C 66.8489 61.664 88.031 C 0.0 **** 0.0
1733 C 67.4518 62.9597 88.559 C 0.0 **** 0.0
1734 C 68.1891 63.8153 87.5183 C 0.0 **** 0.0
1735 C 67.3584 63.8551 86.2134 C 0.0 **** 0.0
1736 C 67.2053 62.4111 85.6504 C 0.0 **** 0.0
1737 C 66.191 62.3563 84.5258 C 0.0 **** 0.0
1738 C 66.0912 60.9821 83.9677 C 0.0 **** 0.0
1739 C 66.3325 59.8692 84.8065 C 0.0 **** 0.0
1740 C 66.3121 58.5937 84.2152 C 0.0 **** 0.0
1741 C 66.0374 58.4347 82.8319 C 0.0 **** 0.0
1742 C 65.706 59.5273 82.0313 C 0.0 **** 0.0
1743 C 65.7321 60.8133 82.5969 C 0.0 **** 0.0
1744 C 72.5737 56.0721 99.6607 C 0.0 **** 0.0
1745 C 71.8134 57.101 100.491 C 0.0 **** 0.0
1746 C 72.5813 53.8288 101.665 C 0.0 **** 0.0
1747 C 70.5077 55.9446 97.4072 C 0.0 **** 0.0
1748 C 70.9377 51.5618 101.241 C 0.0 **** 0.0
1749 C 69.0908 48.4658 97.6366 C 0.0 **** 0.0
1750 C 66.7415 48.3299 95.7298 C 0.0 **** 0.0
1751 O 66.6255 49.2483 93.13 O 0.0 **** 0.0
1752 C 61.8466 50.6852 94.3533 C 0.0 **** 0.0
1753 C 61.9403 53.5556 94.4119 C 0.0 **** 0.0
1754 O 64.7382 54.2466 89.2155 O 0.0 **** 0.0
1755 O 66.5939 55.9157 94.1028 O 0.0 **** 0.0
1756 O 68.3163 57.6701 92.6084 O 0.0 **** 0.0
1757 O 66.4078 56.2515 88.1847 O 0.0 **** 0.0
1758 C 65.2336 62.0359 81.76 C 0.0 **** 0.0
1759 C 65.3606 59.3622 80.566 C 0.0 **** 0.0
1760 H 68.2179 54.0996 97.143 H 0.0 **** 0.0
1761 H 69.5981 53.8702 96.0374 H 0.0 **** 0.0
1762 H 70.5205 50.4769 98.6362 H 0.0 **** 0.0
1763 H 68.8989 50.8655 99.4159 H 0.0 **** 0.0
1764 H 67.8541 54.041 94.76 H 0.0 **** 0.0
1765 H 62.8513 54.2616 92.074 H 0.0 **** 0.0
1766 H 62.1508 52.6371 91.6807 H 0.0 **** 0.0
1767 H 63.9069 53.3611 94.1194 H 0.0 **** 0.0
1768 H 63.861 51.3343 94.9068 H 0.0 **** 0.0
1769 H 63.0289 50.2396 92.0543 H 0.0 **** 0.0
1770 H 64.1991 49.5774 93.2055 H 0.0 **** 0.0
1771 H 67.2101 60.1642 92.2535 H 0.0 **** 0.0
1772 H 68.405 60.323 90.9041 H 0.0 **** 0.0
1773 H 66.4513 61.9742 90.7315 H 0.0 **** 0.0
1774 H 65.3533 60.5795 90.6972 H 0.0 **** 0.0
1775 H 66.6616 63.5872 89.0084 H 0.0 **** 0.0
1776 H 68.1887 62.6932 89.3607 H 0.0 **** 0.0
1777 H 69.2087 63.4183 87.3083 H 0.0 **** 0.0
1778 H 68.3539 64.8608 87.8917 H 0.0 **** 0.0
1779 H 67.9406 64.5055 85.5352 H 0.0 **** 0.0
1780 H 66.3337 64.1907 86.4342 H 0.0 **** 0.0
1781 H 68.1946 62.1552 85.2213 H 0.0 **** 0.0
1782 H 65.2079 62.7817 84.8319 H 0.0 **** 0.0
1783 H 66.5668 63.0209 83.71 H 0.0 **** 0.0
1784 H 66.4842 57.6795 84.7703 H 0.0 **** 0.0
1785 H 65.9804 57.459 82.4391 H 0.0 **** 0.0
1786 H 72.806 56.621 98.7213 H 0.0 **** 0.0
1787 H 73.5326 55.7863 100.184 H 0.0 **** 0.0
1788 H 72.0031 56.9126 101.569 H 0.0 **** 0.0
1789 H 70.7313 57.0098 100.348 H 0.0 **** 0.0
1790 H 72.1127 58.1197 100.26 H 0.0 **** 0.0
1791 H 73.3521 54.6376 101.826 H 0.0 **** 0.0
1792 H 73.1663 52.8499 101.767 H 0.0 **** 0.0
1793 H 71.8831 53.9728 102.478 H 0.0 **** 0.0
1794 H 69.3881 56.2058 97.3529 H 0.0 **** 0.0
1795 H 70.8131 55.6332 96.4141 H 0.0 **** 0.0
1796 H 71.0255 56.893 97.713 H 0.0 **** 0.0
1797 H 69.9906 50.9774 101.188 H 0.0 **** 0.0
1798 H 70.8246 52.0229 102.246 H 0.0 **** 0.0
1799 H 71.8514 50.9393 101.258 H 0.0 **** 0.0
1800 H 68.6205 47.5259 97.2577 H 0.0 **** 0.0
1801 H 68.9218 48.5469 98.7449 H 0.0 **** 0.0
1802 H 70.1653 48.3877 97.3903 H 0.0 **** 0.0
1803 H 65.7715 48.6541 95.2621 H 0.0 **** 0.0
1804 H 66.4676 47.8944 96.7148 H 0.0 **** 0.0
1805 H 67.2173 47.5553 95.1252 H 0.0 **** 0.0
1806 H 66.3704 49.2712 92.173 H 0.0 **** 0.0
1807 H 61.4835 51.0436 95.3564 H 0.0 **** 0.0
1808 H 62.0008 49.6074 94.527 H 0.0 **** 0.0
1809 H 61.1413 50.8389 93.5726 H 0.0 **** 0.0
1810 H 62.0895 54.6517 94.2437 H 0.0 **** 0.0
1811 H 61.9712 53.3552 95.515 H 0.0 **** 0.0
1812 H 60.9837 53.1863 94.0132 H 0.0 **** 0.0
1813 H 64.4894 55.0171 88.539 H 0.0 **** 0.0
1814 H 66.4796 56.8597 94.2288 H 0.0 **** 0.0
1815 H 64.5656 62.6984 82.4243 H 0.0 **** 0.0
1816 H 64.6634 61.9173 80.8091 H 0.0 **** 0.0
1817 H 66.1227 62.6579 81.5462 H 0.0 **** 0.0
1818 H 64.297 59.5928 80.4171 H 0.0 **** 0.0
1819 H 65.5274 58.3101 80.1931 H 0.0 **** 0.0
1820 H 65.9878 60.0018 79.8908 H 0.0 **** 0.0
1821 C 65.6377 26.8372 97.5729 C 0.0 **** 0.0
1822 C 66.9664 26.6595 97.1783 C 0.0 **** 0.0
1823 C 67.763 27.7054 96.7426 C 0.0 **** 0.0
1824 C 67.3814 29.0003 97.1442 C 0.0 **** 0.0
1825 C 66.2091 29.2237 97.8869 C 0.0 **** 0.0
1826 C 65.2273 28.1548 97.9778 C 0.0 **** 0.0
1827 C 68.1989 30.149 96.6066 C 0.0 **** 0.0
1828 C 69.1746 29.8928 95.4792 C 0.0 **** 0.0
1829 C 69.5065 28.5593 95.1087 C 0.0 **** 0.0
1830 C 69.068 27.4401 95.9707 C 0.0 **** 0.0
1831 C 70.2548 28.2936 93.9449 C 0.0 **** 0.0
1832 C 70.5999 29.3909 93.0967 C 0.0 **** 0.0
1833 C 70.448 30.7283 93.5841 C 0.0 **** 0.0
1834 C 69.6726 30.9841 94.721 C 0.0 **** 0.0
1835 C 69.416 32.3567 95.1369 C 0.0 **** 0.0
1836 C 69.9698 33.4217 94.4005 C 0.0 **** 0.0
1837 C 70.8289 33.1512 93.3532 C 0.0 **** 0.0
1838 C 71.0505 31.815 92.929 C 0.0 **** 0.0
1839 C 71.5175 34.3202 92.6387 C 0.0 **** 0.0
1840 C 72.0025 35.3518 93.6483 C 0.0 **** 0.0
1841 C 70.8597 35.7781 94.5764 C 0.0 **** 0.0
1842 C 69.7843 34.8145 94.765 C 0.0 **** 0.0
1843 C 72.756 36.4454 92.9166 C 0.0 **** 0.0
1844 C 71.9282 37.0871 91.8328 C 0.0 **** 0.0
1845 C 71.3559 36.1636 90.8455 C 0.0 **** 0.0
1846 C 70.6676 34.9745 91.51 C 0.0 **** 0.0
1847 C 68.6721 35.215 95.5433 C 0.0 **** 0.0
1848 C 68.6408 36.5239 96.1813 C 0.0 **** 0.0
1849 C 69.7497 37.3591 96.1116 C 0.0 **** 0.0
1850 C 70.8921 36.9734 95.3773 C 0.0 **** 0.0
1851 C 69.6131 38.7835 96.6381 C 0.0 **** 0.0
1852 C 68.4339 39.1777 97.5133 C 0.0 **** 0.0
1853 C 67.404 38.2331 97.6514 C 0.0 **** 0.0
1854 C 67.3996 37.0276 96.8339 C 0.0 **** 0.0
1855 C 66.1755 38.5865 98.4478 C 0.0 **** 0.0
1856 C 66.5073 39.5563 99.5928 C 0.0 **** 0.0
1857 C 67.4149 40.6737 99.2067 C 0.0 **** 0.0
1858 C 68.3898 40.3842 98.2422 C 0.0 **** 0.0
1859 N 69.3381 41.3075 98.0189 N 0.0 **** 0.0
1860 C 69.3621 42.5562 98.5909 C 0.0 **** 0.0
1861 C 68.3272 42.927 99.5035 C 0.0 **** 0.0
1862 C 67.4015 41.9388 99.8581 C 0.0 **** 0.0
1863 C 66.3857 42.1869 100.988 C 0.0 **** 0.0
1864 C 66.4648 43.606 101.611 C 0.0 **** 0.0
1865 C 67.073 44.6852 100.766 C 0.0 **** 0.0
1866 C 68.4473 44.2076 100.32 C 0.0 **** 0.0
1867 C 69.1871 45.2772 99.5321 C 0.0 **** 0.0
1868 C 70.4484 44.7643 98.9367 C 0.0 **** 0.0
1869 C 70.4556 43.4197 98.4539 C 0.0 **** 0.0
1870 C 71.6786 42.8785 97.9945 C 0.0 **** 0.0
1871 C 72.7422 43.7111 97.7232 C 0.0 **** 0.0
1872 C 72.7458 45.0095 98.2074 C 0.0 **** 0.0
1873 C 71.6648 45.5036 98.9327 C 0.0 **** 0.0
1874 C 63.8146 28.3925 98.5359 C 0.0 **** 0.0
1875 C 62.8251 28.9806 97.4954 C 0.0 **** 0.0
1876 C 64.6759 25.67 97.5933 C 0.0 **** 0.0
1877 C 65.9983 30.6101 98.5127 C 0.0 **** 0.0
1878 C 67.5545 25.2264 97.251 C 0.0 **** 0.0
1879 C 70.7534 26.938 93.5717 C 0.0 **** 0.0
1880 C 70.9158 29.0336 91.6465 C 0.0 **** 0.0
1881 O 71.9541 31.5423 91.868 O 0.0 **** 0.0
1882 C 72.3776 35.6423 89.7954 C 0.0 **** 0.0
1883 C 72.604 38.321 91.1857 C 0.0 **** 0.0
1884 O 72.0963 37.7011 95.5304 O 0.0 **** 0.0
1885 O 67.6331 34.363 95.6042 O 0.0 **** 0.0
1886 O 66.3186 36.5137 96.5423 O 0.0 **** 0.0
1887 O 70.3814 39.6734 96.3032 O 0.0 **** 0.0
1888 C 71.797 46.7396 99.7915 C 0.0 **** 0.0
1889 C 73.9044 45.8968 97.8261 C 0.0 **** 0.0
1890 H 67.4226 30.8543 96.2114 H 0.0 **** 0.0
1891 H 68.71 30.6194 97.4344 H 0.0 **** 0.0
1892 H 69.8557 27.1601 96.6726 H 0.0 **** 0.0
1893 H 68.816 26.6224 95.2674 H 0.0 **** 0.0
1894 H 68.8586 32.5234 96.0398 H 0.0 **** 0.0
1895 H 73.2097 37.1435 93.6191 H 0.0 **** 0.0
1896 H 73.665 35.9615 92.4596 H 0.0 **** 0.0
1897 H 71.0523 37.5553 92.4122 H 0.0 **** 0.0
1898 H 70.5884 36.7386 90.2642 H 0.0 **** 0.0
1899 H 70.3901 34.2051 90.7522 H 0.0 **** 0.0
1900 H 69.7137 35.3935 91.9161 H 0.0 **** 0.0
1901 H 65.472 39.0875 97.7054 H 0.0 **** 0.0
1902 H 65.7113 37.7038 98.8889 H 0.0 **** 0.0
1903 H 66.9653 38.9971 100.47 H 0.0 **** 0.0
1904 H 65.5831 39.9624 99.9384 H 0.0 **** 0.0
1905 H 65.3875 42.0491 100.522 H 0.0 **** 0.0
1906 H 66.4573 41.4053 101.809 H 0.0 **** 0.0
1907 H 67.0481 43.5244 102.55 H 0.0 **** 0.0
1908 H 65.5313 43.9897 102.012 H 0.0 **** 0.0
1909 H 67.193 45.6186 101.331 H 0.0 **** 0.0
1910 H 66.4496 44.8865 99.8993 H 0.0 **** 0.0
1911 H 69.0276 43.9796 101.219 H 0.0 **** 0.0
1912 H 68.5545 45.574 98.7154 H 0.0 **** 0.0
1913 H 69.2274 46.1651 100.181 H 0.0 **** 0.0
1914 H 71.7081 41.879 97.5869 H 0.0 **** 0.0
1915 H 73.5699 43.325 97.1089 H 0.0 **** 0.0
1916 H 63.8329 29.0695 99.3802 H 0.0 **** 0.0
1917 H 63.3439 27.4545 98.9484 H 0.0 **** 0.0
1918 H 61.969 29.4561 98.0153 H 0.0 **** 0.0
1919 H 62.4316 28.2002 96.8259 H 0.0 **** 0.0
1920 H 63.3193 29.7728 96.8525 H 0.0 **** 0.0
1921 H 63.6572 26.0446 97.2149 H 0.0 **** 0.0
1922 H 64.6759 25.2101 98.6085 H 0.0 **** 0.0
1923 H 64.9767 24.885 96.889 H 0.0 **** 0.0
1924 H 66.8337 31.294 98.3152 H 0.0 **** 0.0
1925 H 65.9317 30.5326 99.6489 H 0.0 **** 0.0
1926 H 65.0957 31.0924 98.0385 H 0.0 **** 0.0
1927 H 66.9562 24.4959 97.8387 H 0.0 **** 0.0
1928 H 68.5436 25.2529 97.7467 H 0.0 **** 0.0
1929 H 67.6206 24.824 96.2142 H 0.0 **** 0.0
1930 H 70.0298 26.4425 92.8998 H 0.0 **** 0.0
1931 H 70.9374 26.2766 94.3843 H 0.0 **** 0.0
1932 H 71.744 26.9755 93.0483 H 0.0 **** 0.0
1933 H 70.3504 29.755 91.0193 H 0.0 **** 0.0
1934 H 70.5547 28.0781 91.2718 H 0.0 **** 0.0
1935 H 72.0136 29.1607 91.4313 H 0.0 **** 0.0
1936 H 72.1698 32.2868 91.2591 H 0.0 **** 0.0
1937 H 72.8644 36.4374 89.2623 H 0.0 **** 0.0
1938 H 71.8627 35.0381 89.0103 H 0.0 **** 0.0
1939 H 73.1147 34.989 90.2622 H 0.0 **** 0.0
1940 H 72.0349 38.6037 90.2725 H 0.0 **** 0.0
1941 H 73.6658 38.1065 90.9359 H 0.0 **** 0.0
1942 H 72.568 39.2356 91.8451 H 0.0 **** 0.0
1943 H 72.161 38.227 96.4068 H 0.0 **** 0.0
1944 H 67.1279 34.3996 96.4751 H 0.0 **** 0.0
1945 H 71.4152 47.5861 99.2188 H 0.0 **** 0.0
1946 H 72.8843 46.9254 100.068 H 0.0 **** 0.0
1947 H 71.397 46.5523 100.817 H 0.0 **** 0.0
1948 H 73.7166 46.9968 98.0422 H 0.0 **** 0.0
1949 H 74.1451 45.8047 96.7265 H 0.0 **** 0.0
1950 H 74.8167 45.5682 98.3501 H 0.0 **** 0.0
1951 C 102.444 81.1995 71.7641 C 0.0 **** 0.0
1952 C 102.094 79.9685 72.3999 C 0.0 **** 0.0
1953 C 101.388 78.953 71.7216 C 0.0 **** 0.0
1954 C 101.0 79.2197 70.3907 C 0.0 **** 0.0
1955 C 101.321 80.4288 69.7411 C 0.0 **** 0.0
1956 C 102.126 81.3913 70.4008 C 0.0 **** 0.0
1957 C 100.251 78.1483 69.6701 C 0.0 **** 0.0
1958 C 100.347 76.7651 70.2048 C 0.0 **** 0.0
1959 C 100.722 76.5524 71.519 C 0.0 **** 0.0
1960 C 100.805 77.734 72.4275 C 0.0 **** 0.0
1961 C 100.968 75.2385 71.9963 C 0.0 **** 0.0
1962 C 100.929 74.1802 71.0585 C 0.0 **** 0.0
1963 C 100.177 74.3869 69.8887 C 0.0 **** 0.0
1964 C 99.9927 75.6921 69.3878 C 0.0 **** 0.0
1965 C 99.2345 75.854 68.2216 C 0.0 **** 0.0
1966 C 98.4798 74.8132 67.6651 C 0.0 **** 0.0
1967 C 98.4514 73.5752 68.3976 C 0.0 **** 0.0
1968 C 99.52 73.3195 69.2599 C 0.0 **** 0.0
1969 C 97.35 72.5805 68.1497 C 0.0 **** 0.0
1970 C 96.1206 73.2573 67.5242 C 0.0 **** 0.0
1971 C 96.3825 74.2772 66.4588 C 0.0 **** 0.0
1972 C 97.5688 75.0458 66.5841 C 0.0 **** 0.0
1973 C 95.1318 73.8031 68.535 C 0.0 **** 0.0
1974 C 94.7045 72.7502 69.572 C 0.0 **** 0.0
1975 C 95.4511 71.4792 69.4502 C 0.0 **** 0.0
1976 C 96.9598 71.7469 69.3905 C 0.0 **** 0.0
1977 C 97.7816 76.0121 65.6062 C 0.0 **** 0.0
1978 C 96.7799 76.2497 64.5941 C 0.0 **** 0.0
1979 C 95.6617 75.3773 64.4144 C 0.0 **** 0.0
1980 C 95.4846 74.3398 65.3557 C 0.0 **** 0.0
1981 C 94.7297 75.6914 63.3152 C 0.0 **** 0.0
1982 C 94.9667 76.8336 62.3989 C 0.0 **** 0.0
1983 C 96.0029 77.7424 62.6683 C 0.0 **** 0.0
1984 C 96.834 77.5421 63.8288 C 0.0 **** 0.0
1985 C 96.1176 79.0449 61.8697 C 0.0 **** 0.0
1986 C 94.741 79.5095 61.5158 C 0.0 **** 0.0
1987 C 93.9901 78.4157 60.7648 C 0.0 **** 0.0
1988 C 94.0962 77.1076 61.3025 C 0.0 **** 0.0
1989 N 93.3149 76.1366 60.8074 N 0.0 **** 0.0
1990 C 92.4369 76.3115 59.7962 C 0.0 **** 0.0
1991 C 92.3759 77.5785 59.1806 C 0.0 **** 0.0
1992 C 93.0663 78.7067 59.7212 C 0.0 **** 0.0
1993 C 93.0064 80.0841 59.086 C 0.0 **** 0.0
1994 C 92.1728 80.1534 57.793 C 0.0 **** 0.0
1995 C 91.0191 79.2206 57.8418 C 0.0 **** 0.0
1996 C 91.4921 77.7597 57.9534 C 0.0 **** 0.0
1997 C 90.2403 76.8888 58.0783 C 0.0 **** 0.0
1998 C 90.6713 75.4165 58.3439 C 0.0 **** 0.0
1999 C 91.6502 75.2003 59.3137 C 0.0 **** 0.0
2000 C 91.8664 73.8801 59.7794 C 0.0 **** 0.0
2001 C 91.186 72.8432 59.2017 C 0.0 **** 0.0
2002 C 90.3369 73.0372 58.0665 C 0.0 **** 0.0
2003 C 90.066 74.3467 57.6466 C 0.0 **** 0.0
2004 C 102.614 82.6394 69.6774 C 0.0 **** 0.0
2005 C 101.635 83.8136 69.8548 C 0.0 **** 0.0
2006 C 102.994 82.297 72.6714 C 0.0 **** 0.0
2007 C 100.913 80.687 68.2594 C 0.0 **** 0.0
2008 C 102.642 79.6683 73.7844 C 0.0 **** 0.0
2009 C 101.284 75.0215 73.471 C 0.0 **** 0.0
2010 C 101.528 72.8704 71.4635 C 0.0 **** 0.0
2011 O 99.7364 71.9837 69.6517 O 0.0 **** 0.0
2012 C 95.0036 70.5686 68.2736 C 0.0 **** 0.0
2013 C 93.1808 72.5744 69.7301 C 0.0 **** 0.0
2014 O 94.4141 73.4108 65.3838 O 0.0 **** 0.0
2015 O 99.0681 76.5504 65.5068 O 0.0 **** 0.0
2016 O 97.5036 78.4466 64.3062 O 0.0 **** 0.0
2017 O 93.6993 75.062 63.1608 O 0.0 **** 0.0
2018 C 89.0136 74.6457 56.5988 C 0.0 **** 0.0
2019 C 89.6443 71.8303 57.5012 C 0.0 **** 0.0
2020 H 99.16 78.3982 69.4812 H 0.0 **** 0.0
2021 H 100.728 78.1314 68.6782 H 0.0 **** 0.0
2022 H 101.452 77.4934 73.2727 H 0.0 **** 0.0
2023 H 99.832 77.9057 72.7912 H 0.0 **** 0.0
2024 H 98.9698 76.8479 67.8946 H 0.0 **** 0.0
2025 H 95.6059 74.6678 69.0479 H 0.0 **** 0.0
2026 H 94.2742 74.2543 68.0306 H 0.0 **** 0.0
2027 H 95.0413 73.2092 70.5232 H 0.0 **** 0.0
2028 H 95.2268 70.8872 70.3503 H 0.0 **** 0.0
2029 H 97.5062 70.7615 69.401 H 0.0 **** 0.0
2030 H 97.2671 72.2849 70.301 H 0.0 **** 0.0
2031 H 96.5758 79.7806 62.5577 H 0.0 **** 0.0
2032 H 96.6774 78.9343 60.9464 H 0.0 **** 0.0
2033 H 94.8097 80.4343 60.9527 H 0.0 **** 0.0
2034 H 94.1256 79.7371 62.4264 H 0.0 **** 0.0
2035 H 92.5715 80.7897 59.8583 H 0.0 **** 0.0
2036 H 94.0578 80.3925 58.8161 H 0.0 **** 0.0
2037 H 92.7595 79.9262 56.8818 H 0.0 **** 0.0
2038 H 91.7743 81.2225 57.683 H 0.0 **** 0.0
2039 H 90.3811 79.4015 56.9445 H 0.0 **** 0.0
2040 H 90.3683 79.4923 58.6955 H 0.0 **** 0.0
2041 H 92.1326 77.5379 57.054 H 0.0 **** 0.0
2042 H 89.6151 77.2437 58.9054 H 0.0 **** 0.0
2043 H 89.6709 76.9664 57.1278 H 0.0 **** 0.0
2044 H 92.6053 73.6506 60.4984 H 0.0 **** 0.0
2045 H 91.3286 71.842 59.5652 H 0.0 **** 0.0
2046 H 102.832 82.5401 68.603 H 0.0 **** 0.0
2047 H 103.53 82.9653 70.2141 H 0.0 **** 0.0
2048 H 101.115 83.7317 70.8943 H 0.0 **** 0.0
2049 H 100.841 83.8467 69.1087 H 0.0 **** 0.0
2050 H 102.198 84.7935 69.8307 H 0.0 **** 0.0
2051 H 102.377 82.4325 73.5928 H 0.0 **** 0.0
2052 H 103.058 83.2793 72.1881 H 0.0 **** 0.0
2053 H 104.034 82.0528 72.8716 H 0.0 **** 0.0
2054 H 99.8977 80.3643 68.0733 H 0.0 **** 0.0
2055 H 101.615 80.13 67.5743 H 0.0 **** 0.0
2056 H 100.853 81.7327 68.0074 H 0.0 **** 0.0
2057 H 101.826 79.5024 74.4686 H 0.0 **** 0.0
2058 H 103.352 80.4155 74.1915 H 0.0 **** 0.0
2059 H 103.256 78.7081 73.7456 H 0.0 **** 0.0
2060 H 102.236 75.5096 73.7129 H 0.0 **** 0.0
2061 H 101.373 73.9579 73.7306 H 0.0 **** 0.0
2062 H 100.503 75.4418 74.1377 H 0.0 **** 0.0
2063 H 100.752 72.2378 71.9347 H 0.0 **** 0.0
2064 H 102.44 73.0025 72.077 H 0.0 **** 0.0
2065 H 101.941 72.3531 70.5317 H 0.0 **** 0.0
2066 H 99.6582 71.3502 68.8945 H 0.0 **** 0.0
2067 H 93.9795 70.2445 68.54 H 0.0 **** 0.0
2068 H 95.7122 69.6966 68.2288 H 0.0 **** 0.0
2069 H 95.036 71.0853 67.302 H 0.0 **** 0.0
2070 H 92.6517 73.559 69.856 H 0.0 **** 0.0
2071 H 92.9341 71.8987 70.5686 H 0.0 **** 0.0
2072 H 92.7103 72.1398 68.8041 H 0.0 **** 0.0
2073 H 93.679 73.5262 64.7099 H 0.0 **** 0.0
2074 H 99.3469 76.7978 64.5711 H 0.0 **** 0.0
2075 H 88.5562 73.7327 56.2277 H 0.0 **** 0.0
2076 H 89.4854 75.1517 55.7665 H 0.0 **** 0.0
2077 H 88.1598 75.2488 57.0465 H 0.0 **** 0.0
2078 H 88.5173 71.9409 57.4312 H 0.0 **** 0.0
2079 H 89.8452 70.955 58.1429 H 0.0 **** 0.0
2080 H 90.017 71.6732 56.4307 H 0.0 **** 0.0
2081 C 42.8009 30.4057 44.9035 C 0.0 **** 0.0
2082 C 41.435 30.7803 45.0915 C 0.0 **** 0.0
2083 C 40.8149 31.7634 44.2495 C 0.0 **** 0.0
2084 C 41.5822 32.3733 43.2556 C 0.0 **** 0.0
2085 C 42.9504 31.9841 43.0173 C 0.0 **** 0.0
2086 C 43.5784 30.9972 43.8572 C 0.0 **** 0.0
2087 C 41.0242 33.4731 42.4263 C 0.0 **** 0.0
2088 C 39.5614 33.8112 42.597 C 0.0 **** 0.0
2089 C 38.7574 33.1035 43.5438 C 0.0 **** 0.0
2090 C 39.3751 32.117 44.5058 C 0.0 **** 0.0
2091 C 37.3858 33.3967 43.591 C 0.0 **** 0.0
2092 C 36.8065 34.2708 42.6659 C 0.0 **** 0.0
2093 C 37.6363 35.1668 41.9209 C 0.0 **** 0.0
2094 C 39.0565 34.9262 41.8769 C 0.0 **** 0.0
2095 C 39.9056 35.8269 41.1739 C 0.0 **** 0.0
2096 C 39.4462 37.0605 40.7233 C 0.0 **** 0.0
2097 C 38.1677 37.4691 41.1099 C 0.0 **** 0.0
2098 C 37.2305 36.4623 41.5182 C 0.0 **** 0.0
2099 C 37.7103 38.907 41.0443 C 0.0 **** 0.0
2100 C 38.7676 39.9205 40.5841 C 0.0 **** 0.0
2101 C 39.8556 39.3105 39.6891 C 0.0 **** 0.0
2102 C 40.203 37.9226 39.7809 C 0.0 **** 0.0
2103 C 39.4234 40.7202 41.7436 C 0.0 **** 0.0
2104 C 39.4795 39.8411 43.0033 C 0.0 **** 0.0
2105 C 38.1265 39.5316 43.5223 C 0.0 **** 0.0
2106 C 37.0775 39.3594 42.3522 C 0.0 **** 0.0
2107 C 41.1234 37.3626 38.8351 C 0.0 **** 0.0
2108 C 41.7161 38.1805 37.8323 C 0.0 **** 0.0
2109 C 41.3545 39.5579 37.7915 C 0.0 **** 0.0
2110 C 40.4071 40.125 38.712 C 0.0 **** 0.0
2111 C 41.9502 40.3809 36.7119 C 0.0 **** 0.0
2112 C 43.2889 40.0834 36.1866 C 0.0 **** 0.0
2113 C 43.6993 38.7596 36.2688 C 0.0 **** 0.0
2114 C 42.9133 37.7605 37.0102 C 0.0 **** 0.0
2115 C 45.006 38.372 35.6442 C 0.0 **** 0.0
2116 C 46.054 39.4558 35.7522 C 0.0 **** 0.0
2117 C 45.4776 40.7818 35.265 C 0.0 **** 0.0
2118 C 44.1341 41.0706 35.6425 C 0.0 **** 0.0
2119 N 43.7033 42.3748 35.5346 N 0.0 **** 0.0
2120 C 44.4599 43.3665 35.0205 C 0.0 **** 0.0
2121 C 45.7539 43.0718 34.5417 C 0.0 **** 0.0
2122 C 46.261 41.7726 34.6863 C 0.0 **** 0.0
2123 C 47.6549 41.4187 34.2446 C 0.0 **** 0.0
2124 C 48.2992 42.4129 33.2675 C 0.0 **** 0.0
2125 C 48.0574 43.8406 33.625 C 0.0 **** 0.0
2126 C 46.5376 44.123 33.7417 C 0.0 **** 0.0
2127 C 46.3081 45.5082 34.397 C 0.0 **** 0.0
2128 C 44.8514 45.7811 34.7041 C 0.0 **** 0.0
2129 C 43.9868 44.6949 35.0248 C 0.0 **** 0.0
2130 C 42.6213 44.9477 35.3067 C 0.0 **** 0.0
2131 C 42.1166 46.2596 35.2509 C 0.0 **** 0.0
2132 C 42.9787 47.3756 35.107 C 0.0 **** 0.0
2133 C 44.3543 47.1245 34.8316 C 0.0 **** 0.0
2134 C 44.9942 30.5606 43.6672 C 0.0 **** 0.0
2135 C 45.9001 31.2893 44.6565 C 0.0 **** 0.0
2136 C 43.3865 29.3037 45.7957 C 0.0 **** 0.0
2137 C 43.7747 32.6258 41.8484 C 0.0 **** 0.0
2138 C 40.639 30.1618 46.2751 C 0.0 **** 0.0
2139 C 36.4998 32.7915 44.6979 C 0.0 **** 0.0
2140 C 35.3303 34.395 42.5443 C 0.0 **** 0.0
2141 O 35.8268 36.7117 41.3358 O 0.0 **** 0.0
2142 C 37.6533 40.5938 44.5147 C 0.0 **** 0.0
2143 C 40.4965 40.3978 43.9914 C 0.0 **** 0.0
2144 O 40.1392 41.5302 38.713 O 0.0 **** 0.0
2145 O 41.2489 35.9462 38.785 O 0.0 **** 0.0
2146 O 43.3628 36.6211 37.0441 O 0.0 **** 0.0
2147 O 41.2815 41.2416 36.1483 O 0.0 **** 0.0
2148 C 45.2929 48.291 34.5376 C 0.0 **** 0.0
2149 C 42.4027 48.7835 35.0658 C 0.0 **** 0.0
2150 H 41.6434 34.3422 42.7659 H 0.0 **** 0.0
2151 H 41.1074 33.1448 41.355 H 0.0 **** 0.0
2152 H 38.805 31.1653 44.4792 H 0.0 **** 0.0
2153 H 39.3093 32.5818 45.5105 H 0.0 **** 0.0
2154 H 40.9545 35.6414 41.0858 H 0.0 **** 0.0
2155 H 40.3787 41.1057 41.3987 H 0.0 **** 0.0
2156 H 38.8421 41.6571 41.952 H 0.0 **** 0.0
2157 H 39.9841 38.8798 42.7516 H 0.0 **** 0.0
2158 H 38.0643 38.5703 44.0592 H 0.0 **** 0.0
2159 H 36.6252 40.3927 42.1925 H 0.0 **** 0.0
2160 H 36.3338 38.7152 42.7037 H 0.0 **** 0.0
2161 H 45.4504 37.4209 36.0713 H 0.0 **** 0.0
2162 H 44.8441 38.0341 34.5803 H 0.0 **** 0.0
2163 H 46.9618 39.1586 35.2198 H 0.0 **** 0.0
2164 H 46.3477 39.5875 36.8297 H 0.0 **** 0.0
2165 H 48.2804 41.3518 35.1656 H 0.0 **** 0.0
2166 H 47.5813 40.5009 33.629 H 0.0 **** 0.0
2167 H 47.878 42.2328 32.2353 H 0.0 **** 0.0
2168 H 49.3636 42.2258 33.2609 H 0.0 **** 0.0
2169 H 48.5171 44.5605 32.8772 H 0.0 **** 0.0
2170 H 48.5491 44.1171 34.5877 H 0.0 **** 0.0
2171 H 46.103 44.1881 32.7412 H 0.0 **** 0.0
2172 H 46.9181 45.6762 35.3506 H 0.0 **** 0.0
2173 H 46.6436 46.2713 33.6676 H 0.0 **** 0.0
2174 H 41.9362 44.1171 35.4421 H 0.0 **** 0.0
2175 H 41.0789 46.4568 35.3947 H 0.0 **** 0.0
2176 H 45.2636 30.8242 42.6613 H 0.0 **** 0.0
2177 H 45.1034 29.4534 43.7124 H 0.0 **** 0.0
2178 H 45.5583 31.2622 45.6798 H 0.0 **** 0.0
2179 H 46.0202 32.3619 44.3338 H 0.0 **** 0.0
2180 H 46.9282 30.8361 44.6526 H 0.0 **** 0.0
2181 H 43.3163 29.6565 46.852 H 0.0 **** 0.0
2182 H 44.4252 29.0062 45.6893 H 0.0 **** 0.0
2183 H 42.7732 28.3503 45.6396 H 0.0 **** 0.0
2184 H 43.2869 33.4897 41.3186 H 0.0 **** 0.0
2185 H 43.8749 31.8337 41.0489 H 0.0 **** 0.0
2186 H 44.7867 33.0231 42.147 H 0.0 **** 0.0
2187 H 39.5763 30.3573 46.2813 H 0.0 **** 0.0
2188 H 41.0068 30.6206 47.1926 H 0.0 **** 0.0
2189 H 40.8149 29.0633 46.39 H 0.0 **** 0.0
2190 H 36.0821 31.847 44.3056 H 0.0 **** 0.0
2191 H 35.677 33.3883 45.1008 H 0.0 **** 0.0
2192 H 37.0706 32.4769 45.585 H 0.0 **** 0.0
2193 H 34.9587 35.2331 43.1884 H 0.0 **** 0.0
2194 H 34.8152 33.5254 42.9614 H 0.0 **** 0.0
2195 H 34.9937 34.522 41.5024 H 0.0 **** 0.0
2196 H 35.6251 37.4842 40.7135 H 0.0 **** 0.0
2197 H 38.2547 40.5413 45.4113 H 0.0 **** 0.0
2198 H 36.5862 40.5275 44.8299 H 0.0 **** 0.0
2199 H 37.7611 41.572 44.086 H 0.0 **** 0.0
2200 H 41.5634 40.3898 43.6042 H 0.0 **** 0.0
2201 H 40.4269 39.8255 44.9873 H 0.0 **** 0.0
2202 H 40.3019 41.4965 44.2041 H 0.0 **** 0.0
2203 H 40.8217 42.0711 38.2024 H 0.0 **** 0.0
2204 H 41.6348 35.5295 37.9429 H 0.0 **** 0.0
2205 H 46.2106 48.1898 35.1528 H 0.0 **** 0.0
2206 H 44.9165 49.3253 34.8077 H 0.0 **** 0.0
2207 H 45.5709 48.2605 33.4455 H 0.0 **** 0.0
2208 H 41.3163 48.8371 35.2084 H 0.0 **** 0.0
2209 H 42.6516 49.2644 34.1096 H 0.0 **** 0.0
2210 H 42.8211 49.3026 35.9477 H 0.0 **** 0.0
2211 C 57.9702 46.1138 57.6567 C 0.0 **** 0.0
2212 C 58.8889 46.8032 56.8163 C 0.0 **** 0.0
2213 C 59.692 47.8357 57.2569 C 0.0 **** 0.0
2214 C 59.8011 47.9955 58.6679 C 0.0 **** 0.0
2215 C 59.0976 47.1407 59.556 C 0.0 **** 0.0
2216 C 58.0937 46.2193 59.0439 C 0.0 **** 0.0
2217 C 60.6961 49.1637 59.2384 C 0.0 **** 0.0
2218 C 61.2845 50.1375 58.2383 C 0.0 **** 0.0
2219 C 61.177 49.9246 56.8698 C 0.0 **** 0.0
2220 C 60.3778 48.7641 56.2889 C 0.0 **** 0.0
2221 C 61.899 50.7816 55.9846 C 0.0 **** 0.0
2222 C 62.8517 51.7382 56.4889 C 0.0 **** 0.0
2223 C 62.8259 52.0655 57.8787 C 0.0 **** 0.0
2224 C 62.0614 51.2409 58.7452 C 0.0 **** 0.0
2225 C 62.0858 51.5174 60.1649 C 0.0 **** 0.0
2226 C 63.0281 52.3867 60.7174 C 0.0 **** 0.0
2227 C 63.5604 53.3594 59.8708 C 0.0 **** 0.0
2228 C 63.5066 53.1274 58.434 C 0.0 **** 0.0
2229 C 64.2501 54.5292 60.4369 C 0.0 **** 0.0
2230 C 65.0653 54.1569 61.6262 C 0.0 **** 0.0
2231 C 64.2964 53.3274 62.6289 C 0.0 **** 0.0
2232 C 63.3835 52.3577 62.1297 C 0.0 **** 0.0
2233 C 65.8649 55.4003 62.0607 C 0.0 **** 0.0
2234 C 64.9689 56.6006 62.4479 C 0.0 **** 0.0
2235 C 63.9772 56.9248 61.3263 C 0.0 **** 0.0
2236 C 63.244 55.6425 60.7616 C 0.0 **** 0.0
2237 C 63.0074 51.274 62.9869 C 0.0 **** 0.0
2238 C 63.1208 51.4248 64.4036 C 0.0 **** 0.0
2239 C 63.9234 52.3765 64.9251 C 0.0 **** 0.0
2240 C 64.709 53.201 64.054 C 0.0 **** 0.0
2241 C 63.9352 52.5828 66.4319 C 0.0 **** 0.0
2242 C 63.452 51.5092 67.3532 C 0.0 **** 0.0
2243 C 62.6302 50.5226 66.752 C 0.0 **** 0.0
2244 C 62.3468 50.5663 65.305 C 0.0 **** 0.0
2245 C 62.0927 49.3528 67.5539 C 0.0 **** 0.0
2246 C 62.5449 49.3074 69.014 C 0.0 **** 0.0
2247 C 63.5667 50.3542 69.5043 C 0.0 **** 0.0
2248 C 63.8957 51.4551 68.6889 C 0.0 **** 0.0
2249 N 64.7782 52.4214 69.1201 N 0.0 **** 0.0
2250 C 65.2418 52.4394 70.4019 C 0.0 **** 0.0
2251 C 64.82 51.4235 71.2995 C 0.0 **** 0.0
2252 C 64.1502 50.2841 70.7747 C 0.0 **** 0.0
2253 C 64.0031 49.0472 71.5951 C 0.0 **** 0.0
2254 C 64.5239 49.106 73.0426 C 0.0 **** 0.0
2255 C 64.6292 50.4843 73.702 C 0.0 **** 0.0
2256 C 65.4151 51.3919 72.7143 C 0.0 **** 0.0
2257 C 65.6731 52.8248 73.2019 C 0.0 **** 0.0
2258 C 66.415 53.6633 72.1839 C 0.0 **** 0.0
2259 C 66.1236 53.4609 70.8236 C 0.0 **** 0.0
2260 C 66.5925 54.3853 69.8676 C 0.0 **** 0.0
2261 C 67.4697 55.3886 70.219 C 0.0 **** 0.0
2262 C 67.8241 55.5903 71.5237 C 0.0 **** 0.0
2263 C 67.2558 54.7394 72.5323 C 0.0 **** 0.0
2264 C 57.3052 45.2456 59.921 C 0.0 **** 0.0
2265 C 56.0044 45.911 60.4822 C 0.0 **** 0.0
2266 C 56.9905 45.0864 57.0863 C 0.0 **** 0.0
2267 C 59.3683 47.1047 61.0505 C 0.0 **** 0.0
2268 C 58.9721 46.4405 55.3493 C 0.0 **** 0.0
2269 C 61.6546 50.6551 54.5057 C 0.0 **** 0.0
2270 C 63.9271 52.2405 55.542 C 0.0 **** 0.0
2271 O 64.1269 54.0214 57.5745 O 0.0 **** 0.0
2272 C 64.4736 57.8087 60.1543 C 0.0 **** 0.0
2273 C 65.9024 57.7273 62.8962 C 0.0 **** 0.0
2274 O 65.7407 53.9864 64.5843 O 0.0 **** 0.0
2275 O 62.6964 50.0378 62.418 O 0.0 **** 0.0
2276 O 61.3454 50.0224 64.8763 O 0.0 **** 0.0
2277 O 64.2629 53.6372 66.9077 O 0.0 **** 0.0
2278 C 67.5508 54.9292 73.9912 C 0.0 **** 0.0
2279 C 68.689 56.7806 71.8233 C 0.0 **** 0.0
2280 H 60.046 49.7536 59.9 H 0.0 **** 0.0
2281 H 61.5675 48.6777 59.7873 H 0.0 **** 0.0
2282 H 61.1117 48.2222 55.7073 H 0.0 **** 0.0
2283 H 59.5748 49.1978 55.6683 H 0.0 **** 0.0
2284 H 61.3785 51.021 60.8523 H 0.0 **** 0.0
2285 H 66.5347 55.1869 62.8554 H 0.0 **** 0.0
2286 H 66.5515 55.6603 61.2074 H 0.0 **** 0.0
2287 H 64.4066 56.3316 63.3513 H 0.0 **** 0.0
2288 H 63.1508 57.5231 61.7943 H 0.0 **** 0.0
2289 H 62.6465 55.8589 59.8256 H 0.0 **** 0.0
2290 H 62.5374 55.2794 61.5648 H 0.0 **** 0.0
2291 H 60.9877 49.345 67.5226 H 0.0 **** 0.0
2292 H 62.4491 48.4141 67.074 H 0.0 **** 0.0
2293 H 62.8421 48.2923 69.1989 H 0.0 **** 0.0
2294 H 61.6676 49.5541 69.6552 H 0.0 **** 0.0
2295 H 62.9155 48.8223 71.7053 H 0.0 **** 0.0
2296 H 64.4444 48.1397 71.1089 H 0.0 **** 0.0
2297 H 65.5472 48.7256 72.9729 H 0.0 **** 0.0
2298 H 63.9396 48.4616 73.7245 H 0.0 **** 0.0
2299 H 65.1627 50.4433 74.6671 H 0.0 **** 0.0
2300 H 63.598 50.9111 73.8956 H 0.0 **** 0.0
2301 H 66.4558 50.9785 72.6445 H 0.0 **** 0.0
2302 H 64.7017 53.3707 73.3378 H 0.0 **** 0.0
2303 H 66.2526 52.7592 74.1125 H 0.0 **** 0.0
2304 H 66.2807 54.313 68.8129 H 0.0 **** 0.0
2305 H 68.0165 55.9637 69.4516 H 0.0 **** 0.0
2306 H 57.9444 44.9159 60.7714 H 0.0 **** 0.0
2307 H 57.0061 44.3105 59.4689 H 0.0 **** 0.0
2308 H 55.2574 45.1458 60.8018 H 0.0 **** 0.0
2309 H 55.5277 46.4964 59.6599 H 0.0 **** 0.0
2310 H 56.2143 46.5344 61.3779 H 0.0 **** 0.0
2311 H 56.7763 45.2317 56.0338 H 0.0 **** 0.0
2312 H 55.9784 45.1427 57.5643 H 0.0 **** 0.0
2313 H 57.4849 44.0469 57.2343 H 0.0 **** 0.0
2314 H 58.5005 47.436 61.6116 H 0.0 **** 0.0
2315 H 60.2109 47.7507 61.2754 H 0.0 **** 0.0
2316 H 59.7054 46.1235 61.4022 H 0.0 **** 0.0
2317 H 59.81 46.8733 54.7822 H 0.0 **** 0.0
2318 H 58.0461 46.6998 54.8376 H 0.0 **** 0.0
2319 H 59.076 45.3138 55.3107 H 0.0 **** 0.0
2320 H 62.3149 49.9274 54.0288 H 0.0 **** 0.0
2321 H 61.8146 51.643 54.0231 H 0.0 **** 0.0
2322 H 60.6346 50.3528 54.3103 H 0.0 **** 0.0
2323 H 63.6934 53.2661 55.0877 H 0.0 **** 0.0
2324 H 64.1011 51.4755 54.7835 H 0.0 **** 0.0
2325 H 64.9671 52.3282 56.0295 H 0.0 **** 0.0
2326 H 64.4676 54.8948 57.9886 H 0.0 **** 0.0
2327 H 65.3165 57.3339 59.62 H 0.0 **** 0.0
2328 H 64.8319 58.7656 60.6438 H 0.0 **** 0.0
2329 H 63.609 57.9476 59.4668 H 0.0 **** 0.0
2330 H 66.3872 57.5102 63.8971 H 0.0 **** 0.0
2331 H 65.251 58.6391 62.987 H 0.0 **** 0.0
2332 H 66.6953 57.9202 62.1471 H 0.0 **** 0.0
2333 H 66.1094 53.5971 65.4251 H 0.0 **** 0.0
2334 H 62.8812 49.3064 63.046 H 0.0 **** 0.0
2335 H 66.6182 54.9847 74.5461 H 0.0 **** 0.0
2336 H 68.0514 55.8628 74.2175 H 0.0 **** 0.0
2337 H 68.147 54.1695 74.5286 H 0.0 **** 0.0
2338 H 68.063 57.5459 72.3282 H 0.0 **** 0.0
2339 H 69.0856 57.3014 70.9208 H 0.0 **** 0.0
2340 H 69.527 56.5138 72.4335 H 0.0 **** 0.0
2341 C 87.1188 53.5005 72.0747 C 0.0 **** 0.0
2342 C 87.7929 52.4377 72.7822 C 0.0 **** 0.0
2343 C 88.3868 52.6375 74.0606 C 0.0 **** 0.0
2344 C 88.2109 53.8579 74.6994 C 0.0 **** 0.0
2345 C 87.4857 54.9022 74.0551 C 0.0 **** 0.0
2346 C 86.9289 54.7247 72.7441 C 0.0 **** 0.0
2347 C 88.9298 54.1557 75.9584 C 0.0 **** 0.0
2348 C 89.8553 53.0996 76.5765 C 0.0 **** 0.0
2349 C 89.9209 51.8478 75.9993 C 0.0 **** 0.0
2350 C 89.1944 51.5321 74.6793 C 0.0 **** 0.0
2351 C 90.7882 50.8816 76.5537 C 0.0 **** 0.0
2352 C 91.4989 51.1708 77.7913 C 0.0 **** 0.0
2353 C 91.1624 52.3465 78.5008 C 0.0 **** 0.0
2354 C 90.3925 53.2987 77.8445 C 0.0 **** 0.0
2355 C 90.1592 54.5021 78.435 C 0.0 **** 0.0
2356 C 90.3917 54.7508 79.765 C 0.0 **** 0.0
2357 C 91.2279 53.8625 80.4564 C 0.0 **** 0.0
2358 C 91.5682 52.5948 79.8427 C 0.0 **** 0.0
2359 C 91.8553 54.3725 81.7582 C 0.0 **** 0.0
2360 C 91.8214 55.9526 81.8169 C 0.0 **** 0.0
2361 C 90.4787 56.4713 81.4828 C 0.0 **** 0.0
2362 C 89.8306 55.9026 80.3612 C 0.0 **** 0.0
2363 C 92.8403 56.6163 80.9086 C 0.0 **** 0.0
2364 C 94.107 55.7642 80.7191 C 0.0 **** 0.0
2365 C 94.4022 54.9492 81.8617 C 0.0 **** 0.0
2366 C 93.2875 53.8963 82.1173 C 0.0 **** 0.0
2367 C 88.6391 56.5273 79.8776 C 0.0 **** 0.0
2368 C 88.0657 57.6068 80.5361 C 0.0 **** 0.0
2369 C 88.6003 58.0631 81.7372 C 0.0 **** 0.0
2370 C 89.8904 57.5714 82.1623 C 0.0 **** 0.0
2371 C 87.7634 58.8445 82.6764 C 0.0 **** 0.0
2372 C 86.4162 59.3503 82.2562 C 0.0 **** 0.0
2373 C 85.9893 59.0736 80.9504 C 0.0 **** 0.0
2374 C 86.83 58.2956 80.0507 C 0.0 **** 0.0
2375 C 84.5965 59.5033 80.5232 C 0.0 **** 0.0
2376 C 84.1557 60.7276 81.3393 C 0.0 **** 0.0
2377 C 84.2907 60.4476 82.8277 C 0.0 **** 0.0
2378 C 85.5037 59.8763 83.2377 C 0.0 **** 0.0
2379 N 85.724 59.6191 84.5598 N 0.0 **** 0.0
2380 C 84.7949 59.7777 85.519 C 0.0 **** 0.0
2381 C 83.5641 60.415 85.1664 C 0.0 **** 0.0
2382 C 83.285 60.7264 83.7942 C 0.0 **** 0.0
2383 C 81.9243 61.3007 83.4008 C 0.0 **** 0.0
2384 C 80.8845 61.3771 84.4818 C 0.0 **** 0.0
2385 C 81.4775 61.6185 85.887 C 0.0 **** 0.0
2386 C 82.47 60.4896 86.2527 C 0.0 **** 0.0
2387 C 83.096 60.7453 87.6075 C 0.0 **** 0.0
2388 C 84.1758 59.6708 87.9011 C 0.0 **** 0.0
2389 C 85.0639 59.3246 86.8632 C 0.0 **** 0.0
2390 C 86.205 58.582 87.1431 C 0.0 **** 0.0
2391 C 86.3867 58.0369 88.4199 C 0.0 **** 0.0
2392 C 85.3755 58.1065 89.3742 C 0.0 **** 0.0
2393 C 84.3401 59.0439 89.1728 C 0.0 **** 0.0
2394 C 86.1387 55.8036 72.0657 C 0.0 **** 0.0
2395 C 86.9802 56.7263 71.1809 C 0.0 **** 0.0
2396 C 86.7685 53.3115 70.5712 C 0.0 **** 0.0
2397 C 87.3538 56.2603 74.7098 C 0.0 **** 0.0
2398 C 87.8832 51.0287 72.1848 C 0.0 **** 0.0
2399 C 90.8054 49.4473 75.9789 C 0.0 **** 0.0
2400 C 92.629 50.2852 78.225 C 0.0 **** 0.0
2401 O 92.0862 51.5345 80.6154 O 0.0 **** 0.0
2402 C 94.632 55.7692 83.1603 C 0.0 **** 0.0
2403 C 95.3047 56.5765 80.2068 C 0.0 **** 0.0
2404 O 90.6105 58.1737 83.2039 O 0.0 **** 0.0
2405 O 87.8961 55.8671 78.9015 O 0.0 **** 0.0
2406 O 86.5403 58.2583 78.8593 O 0.0 **** 0.0
2407 O 88.0967 58.9734 83.8362 O 0.0 **** 0.0
2408 C 83.3497 59.3066 90.2467 C 0.0 **** 0.0
2409 C 85.4735 57.2491 90.5791 C 0.0 **** 0.0
2410 H 89.5754 54.9922 75.799 H 0.0 **** 0.0
2411 H 88.1736 54.4424 76.7312 H 0.0 **** 0.0
2412 H 88.4502 50.7556 74.9373 H 0.0 **** 0.0
2413 H 89.9173 51.1394 73.9156 H 0.0 **** 0.0
2414 H 89.8532 55.3943 77.8761 H 0.0 **** 0.0
2415 H 92.3982 56.8072 79.8865 H 0.0 **** 0.0
2416 H 93.0827 57.6119 81.3588 H 0.0 **** 0.0
2417 H 93.9165 55.0652 79.8685 H 0.0 **** 0.0
2418 H 95.3199 54.3957 81.6838 H 0.0 **** 0.0
2419 H 93.2512 53.5526 83.1822 H 0.0 **** 0.0
2420 H 93.6558 53.0681 81.5004 H 0.0 **** 0.0
2421 H 84.5935 59.7894 79.3911 H 0.0 **** 0.0
2422 H 83.898 58.6623 80.6237 H 0.0 **** 0.0
2423 H 83.1093 60.9277 81.1029 H 0.0 **** 0.0
2424 H 84.7331 61.5749 81.0242 H 0.0 **** 0.0
2425 H 82.0936 62.3507 82.999 H 0.0 **** 0.0
2426 H 81.4743 60.731 82.55 H 0.0 **** 0.0
2427 H 80.3319 60.4332 84.4835 H 0.0 **** 0.0
2428 H 80.1224 62.1341 84.2407 H 0.0 **** 0.0
2429 H 80.6457 61.6885 86.6263 H 0.0 **** 0.0
2430 H 81.9945 62.5971 85.9096 H 0.0 **** 0.0
2431 H 81.938 59.5679 86.3028 H 0.0 **** 0.0
2432 H 83.5186 61.7627 87.549 H 0.0 **** 0.0
2433 H 82.26 60.719 88.3523 H 0.0 **** 0.0
2434 H 86.9741 58.4572 86.4008 H 0.0 **** 0.0
2435 H 87.2771 57.3937 88.5622 H 0.0 **** 0.0
2436 H 85.6718 56.4606 72.8123 H 0.0 **** 0.0
2437 H 85.2928 55.3684 71.4411 H 0.0 **** 0.0
2438 H 87.6141 57.4011 71.8186 H 0.0 **** 0.0
2439 H 86.2937 57.291 70.4736 H 0.0 **** 0.0
2440 H 87.6985 56.1654 70.6081 H 0.0 **** 0.0
2441 H 85.9206 52.6047 70.5027 H 0.0 **** 0.0
2442 H 87.721 52.9917 70.0424 H 0.0 **** 0.0
2443 H 86.5007 54.2353 70.0452 H 0.0 **** 0.0
2444 H 86.2743 56.4185 74.9756 H 0.0 **** 0.0
2445 H 87.5724 57.122 74.041 H 0.0 **** 0.0
2446 H 87.9247 56.4153 75.6557 H 0.0 **** 0.0
2447 H 88.9115 50.8172 71.8192 H 0.0 **** 0.0
2448 H 87.2386 50.9609 71.2624 H 0.0 **** 0.0
2449 H 87.6216 50.2161 72.8816 H 0.0 **** 0.0
2450 H 91.241 48.7405 76.708 H 0.0 **** 0.0
2451 H 91.5199 49.465 75.1232 H 0.0 **** 0.0
2452 H 89.8045 49.0352 75.7474 H 0.0 **** 0.0
2453 H 93.3716 50.8162 78.8571 H 0.0 **** 0.0
2454 H 93.2027 49.8764 77.3755 H 0.0 **** 0.0
2455 H 92.2279 49.4357 78.8104 H 0.0 **** 0.0
2456 H 91.9911 51.6361 81.6227 H 0.0 **** 0.0
2457 H 95.4121 56.5183 83.0881 H 0.0 **** 0.0
2458 H 94.9218 55.0815 83.9737 H 0.0 **** 0.0
2459 H 93.7499 56.3385 83.4105 H 0.0 **** 0.0
2460 H 95.0546 57.1508 79.3083 H 0.0 **** 0.0
2461 H 96.1348 55.9107 79.9591 H 0.0 **** 0.0
2462 H 95.7064 57.3032 80.9617 H 0.0 **** 0.0
2463 H 90.3013 59.1006 83.3995 H 0.0 **** 0.0
2464 H 86.861 55.8656 79.1288 H 0.0 **** 0.0
2465 H 83.2844 60.4318 90.4468 H 0.0 **** 0.0
2466 H 83.6512 58.8993 91.2458 H 0.0 **** 0.0
2467 H 82.3685 58.8065 90.0655 H 0.0 **** 0.0
2468 H 85.7338 57.7682 91.5035 H 0.0 **** 0.0
2469 H 86.1934 56.4409 90.3839 H 0.0 **** 0.0
2470 H 84.4735 56.8135 90.7306 H 0.0 **** 0.0
2471 C 80.0348 65.6118 35.2476 C 0.0 **** 0.0
2472 C 78.6917 65.8313 34.9597 C 0.0 **** 0.0
2473 C 78.3229 66.8445 34.0607 C 0.0 **** 0.0
2474 C 79.3203 67.5489 33.3685 C 0.0 **** 0.0
2475 C 80.6839 67.1973 33.5073 C 0.0 **** 0.0
2476 C 81.0457 66.3397 34.5548 C 0.0 **** 0.0
2477 C 78.9148 68.6306 32.4174 C 0.0 **** 0.0
2478 C 77.4818 69.1529 32.476 C 0.0 **** 0.0
2479 C 76.5051 68.472 33.211 C 0.0 **** 0.0
2480 C 76.8616 67.2991 34.0778 C 0.0 **** 0.0
2481 C 75.1432 68.8381 33.123 C 0.0 **** 0.0
2482 C 74.689 69.7598 32.1465 C 0.0 **** 0.0
2483 C 75.706 70.5272 31.4944 C 0.0 **** 0.0
2484 C 77.0782 70.1722 31.587 C 0.0 **** 0.0
2485 C 78.0598 70.8701 30.8201 C 0.0 **** 0.0
2486 C 77.6922 71.938 29.9798 C 0.0 **** 0.0
2487 C 76.3681 72.3414 29.9525 C 0.0 **** 0.0
2488 C 75.3755 71.6397 30.6789 C 0.0 **** 0.0
2489 C 75.9921 73.4767 29.0038 C 0.0 **** 0.0
2490 C 76.6966 73.2904 27.6548 C 0.0 **** 0.0
2491 C 78.1635 72.9745 27.8418 C 0.0 **** 0.0
2492 C 78.6182 72.5227 29.0855 C 0.0 **** 0.0
2493 C 76.3985 74.5395 26.7535 C 0.0 **** 0.0
2494 C 76.6333 75.9021 27.4742 C 0.0 **** 0.0
2495 C 75.9438 76.0352 28.7697 C 0.0 **** 0.0
2496 C 76.3167 74.8648 29.6811 C 0.0 **** 0.0
2497 C 80.014 72.4354 29.345 C 0.0 **** 0.0
2498 C 80.9475 72.357 28.2783 C 0.0 **** 0.0
2499 C 80.432 72.5107 26.9803 C 0.0 **** 0.0
2500 C 79.0539 72.812 26.7551 C 0.0 **** 0.0
2501 C 81.3296 72.3534 25.8019 C 0.0 **** 0.0
2502 C 82.6639 71.9029 25.9373 C 0.0 **** 0.0
2503 C 83.2271 71.8626 27.241 C 0.0 **** 0.0
2504 C 82.3903 72.0494 28.4484 C 0.0 **** 0.0
2505 C 84.6922 71.6388 27.4368 C 0.0 **** 0.0
2506 C 85.4804 72.0078 26.1975 C 0.0 **** 0.0
2507 C 84.8344 71.3537 24.9778 C 0.0 **** 0.0
2508 C 83.4497 71.5101 24.8079 C 0.0 **** 0.0
2509 N 82.8454 71.1646 23.6185 N 0.0 **** 0.0
2510 C 83.5452 70.5434 22.6058 C 0.0 **** 0.0
2511 C 84.9239 70.2838 22.8184 C 0.0 **** 0.0
2512 C 85.5963 70.7295 23.9855 C 0.0 **** 0.0
2513 C 87.105 70.5476 24.1449 C 0.0 **** 0.0
2514 C 87.6813 69.4557 23.2123 C 0.0 **** 0.0
2515 C 87.1224 69.6734 21.8208 C 0.0 **** 0.0
2516 C 85.6195 69.3957 21.8402 C 0.0 **** 0.0
2517 C 85.1181 69.6472 20.4027 C 0.0 **** 0.0
2518 C 83.6741 69.6595 20.3026 C 0.0 **** 0.0
2519 C 82.9174 70.2035 21.3779 C 0.0 **** 0.0
2520 C 81.5456 70.4506 21.2189 C 0.0 **** 0.0
2521 C 80.929 70.1782 19.9889 C 0.0 **** 0.0
2522 C 81.6559 69.7328 18.8699 C 0.0 **** 0.0
2523 C 83.0598 69.5779 19.0069 C 0.0 **** 0.0
2524 C 82.4585 66.292 35.0437 C 0.0 **** 0.0
2525 C 82.5632 66.9333 36.4102 C 0.0 **** 0.0
2526 C 80.3692 64.5693 36.3411 C 0.0 **** 0.0
2527 C 81.7612 67.8022 32.7242 C 0.0 **** 0.0
2528 C 77.5712 65.089 35.6886 C 0.0 **** 0.0
2529 C 74.127 68.2085 34.0578 C 0.0 **** 0.0
2530 C 73.1897 69.9565 31.8969 C 0.0 **** 0.0
2531 O 74.0947 72.1699 30.6749 O 0.0 **** 0.0
2532 C 74.4246 76.2092 28.7711 C 0.0 **** 0.0
2533 C 76.313 77.0322 26.5404 C 0.0 **** 0.0
2534 O 78.5175 72.5111 25.506 O 0.0 **** 0.0
2535 O 80.4914 72.4963 30.6611 O 0.0 **** 0.0
2536 O 82.7919 71.8495 29.5698 O 0.0 **** 0.0
2537 O 80.9764 72.7123 24.696 O 0.0 **** 0.0
2538 C 83.8903 69.2585 17.8078 C 0.0 **** 0.0
2539 C 80.9309 69.4779 17.5559 C 0.0 **** 0.0
2540 H 79.5962 69.469 32.6841 H 0.0 **** 0.0
2541 H 79.0699 68.3192 31.3268 H 0.0 **** 0.0
2542 H 76.1869 66.4763 33.6864 H 0.0 **** 0.0
2543 H 76.5576 67.5215 35.1355 H 0.0 **** 0.0
2544 H 79.097 70.5219 30.79 H 0.0 **** 0.0
2545 H 77.0192 74.5351 25.8328 H 0.0 **** 0.0
2546 H 75.3076 74.5092 26.4318 H 0.0 **** 0.0
2547 H 77.7387 76.0208 27.651 H 0.0 **** 0.0
2548 H 76.3855 76.9234 29.2978 H 0.0 **** 0.0
2549 H 75.8934 74.9637 30.6764 H 0.0 **** 0.0
2550 H 77.404 74.9163 29.7514 H 0.0 **** 0.0
2551 H 85.0394 72.2698 28.2746 H 0.0 **** 0.0
2552 H 84.8614 70.6078 27.6929 H 0.0 **** 0.0
2553 H 86.5776 71.7982 26.3192 H 0.0 **** 0.0
2554 H 85.434 73.131 25.9946 H 0.0 **** 0.0
2555 H 87.6312 71.5373 23.9991 H 0.0 **** 0.0
2556 H 87.3148 70.1936 25.1469 H 0.0 **** 0.0
2557 H 87.4097 68.4266 23.5469 H 0.0 **** 0.0
2558 H 88.7688 69.496 23.232 H 0.0 **** 0.0
2559 H 87.7144 68.9816 21.2011 H 0.0 **** 0.0
2560 H 87.3567 70.6841 21.4759 H 0.0 **** 0.0
2561 H 85.4534 68.3365 22.0744 H 0.0 **** 0.0
2562 H 85.4873 70.621 19.9564 H 0.0 **** 0.0
2563 H 85.538 68.8314 19.7908 H 0.0 **** 0.0
2564 H 80.9554 70.8206 22.0139 H 0.0 **** 0.0
2565 H 79.8423 70.4265 19.8394 H 0.0 **** 0.0
2566 H 83.2481 66.7526 34.3851 H 0.0 **** 0.0
2567 H 82.7773 65.2362 34.9918 H 0.0 **** 0.0
2568 H 81.7904 66.656 37.1654 H 0.0 **** 0.0
2569 H 82.4731 68.0121 36.3006 H 0.0 **** 0.0
2570 H 83.5278 66.7222 36.8796 H 0.0 **** 0.0
2571 H 79.8254 64.8176 37.3041 H 0.0 **** 0.0
2572 H 81.4321 64.5147 36.6037 H 0.0 **** 0.0
2573 H 80.0282 63.5453 35.9592 H 0.0 **** 0.0
2574 H 82.3704 66.9986 32.2824 H 0.0 **** 0.0
2575 H 82.3228 68.4898 33.3802 H 0.0 **** 0.0
2576 H 81.3629 68.3748 31.8373 H 0.0 **** 0.0
2577 H 76.8718 64.6979 34.8751 H 0.0 **** 0.0
2578 H 77.1365 65.8133 36.4878 H 0.0 **** 0.0
2579 H 77.8901 64.1249 36.2692 H 0.0 **** 0.0
2580 H 73.4555 67.4952 33.4717 H 0.0 **** 0.0
2581 H 73.5362 69.0147 34.4791 H 0.0 **** 0.0
2582 H 74.5003 67.6179 34.929 H 0.0 **** 0.0
2583 H 72.7709 70.8953 32.3818 H 0.0 **** 0.0
2584 H 72.5395 69.0441 32.0879 H 0.0 **** 0.0
2585 H 73.0021 70.0881 30.8035 H 0.0 **** 0.0
2586 H 73.9206 73.0368 30.1406 H 0.0 **** 0.0
2587 H 74.2114 77.1406 28.2331 H 0.0 **** 0.0
2588 H 73.9845 76.396 29.786 H 0.0 **** 0.0
2589 H 73.9777 75.3804 28.1934 H 0.0 **** 0.0
2590 H 76.996 77.0132 25.701 H 0.0 **** 0.0
2591 H 76.4675 78.0203 27.0449 H 0.0 **** 0.0
2592 H 75.279 77.0167 26.1316 H 0.0 **** 0.0
2593 H 77.5578 72.2117 25.4464 H 0.0 **** 0.0
2594 H 79.8731 72.9218 31.3327 H 0.0 **** 0.0
2595 H 84.8129 69.8387 17.8348 H 0.0 **** 0.0
2596 H 83.3755 69.5648 16.8588 H 0.0 **** 0.0
2597 H 84.1152 68.1648 17.7576 H 0.0 **** 0.0
2598 H 81.312 70.2657 16.8664 H 0.0 **** 0.0
2599 H 79.7852 69.5609 17.6873 H 0.0 **** 0.0
2600 H 81.0973 68.4026 17.2683 H 0.0 **** 0.0
2601 C 84.6431 47.8803 45.5295 C 0.0 **** 0.0
2602 C 85.883 48.5253 45.4596 C 0.0 **** 0.0
2603 C 86.3782 49.2452 46.5965 C 0.0 **** 0.0
2604 C 85.6428 49.2933 47.7533 C 0.0 **** 0.0
2605 C 84.3971 48.5982 47.8682 C 0.0 **** 0.0
2606 C 83.8788 47.9326 46.7119 C 0.0 **** 0.0
2607 C 86.2764 49.9831 48.9867 C 0.0 **** 0.0
2608 C 87.3261 51.0449 48.7352 C 0.0 **** 0.0
2609 C 87.99 50.9874 47.548 C 0.0 **** 0.0
2610 C 87.6564 50.0186 46.4554 C 0.0 **** 0.0
2611 C 89.102 51.8743 47.3416 C 0.0 **** 0.0
2612 C 89.3263 52.969 48.2528 C 0.0 **** 0.0
2613 C 88.4543 53.14 49.3766 C 0.0 **** 0.0
2614 C 87.5507 52.0915 49.6692 C 0.0 **** 0.0
2615 C 86.9266 52.1046 50.9201 C 0.0 **** 0.0
2616 C 86.9886 53.2351 51.7857 C 0.0 **** 0.0
2617 C 87.5773 54.386 51.2397 C 0.0 **** 0.0
2618 C 88.3951 54.3246 50.099 C 0.0 **** 0.0
2619 C 87.2651 55.6741 51.9112 C 0.0 **** 0.0
2620 C 87.6089 55.6135 53.4162 C 0.0 **** 0.0
2621 C 86.9555 54.3804 54.0489 C 0.0 **** 0.0
2622 C 86.5515 53.2893 53.1768 C 0.0 **** 0.0
2623 C 87.4148 57.0304 54.0115 C 0.0 **** 0.0
2624 C 85.9632 57.5237 53.7748 C 0.0 **** 0.0
2625 C 85.5785 57.5343 52.3485 C 0.0 **** 0.0
2626 C 85.8702 56.1602 51.6859 C 0.0 **** 0.0
2627 C 85.6169 52.344 53.7366 C 0.0 **** 0.0
2628 C 85.522 52.1994 55.1461 C 0.0 **** 0.0
2629 C 86.1943 53.1454 55.9993 C 0.0 **** 0.0
2630 C 86.9286 54.2137 55.4639 C 0.0 **** 0.0
2631 C 86.2518 52.7912 57.4317 C 0.0 **** 0.0
2632 C 85.1811 51.9801 58.0745 C 0.0 **** 0.0
2633 C 84.5818 50.9835 57.2783 C 0.0 **** 0.0
2634 C 84.8675 51.0377 55.7816 C 0.0 **** 0.0
2635 C 83.3673 50.2598 57.7757 C 0.0 **** 0.0
2636 C 83.3512 50.103 59.2996 C 0.0 **** 0.0
2637 C 83.7707 51.3963 59.9861 C 0.0 **** 0.0
2638 C 84.6979 52.2641 59.3477 C 0.0 **** 0.0
2639 N 85.0879 53.4053 59.9506 N 0.0 **** 0.0
2640 C 84.6281 53.8006 61.1641 C 0.0 **** 0.0
2641 C 83.8675 52.9304 61.9277 C 0.0 **** 0.0
2642 C 83.5406 51.6622 61.3828 C 0.0 **** 0.0
2643 C 82.7084 50.668 62.2124 C 0.0 **** 0.0
2644 C 82.616 50.9491 63.6986 C 0.0 **** 0.0
2645 C 82.482 52.4063 63.9081 C 0.0 **** 0.0
2646 C 83.6232 53.2455 63.3629 C 0.0 **** 0.0
2647 C 83.4511 54.7814 63.6583 C 0.0 **** 0.0
2648 C 84.2952 55.6731 62.7441 C 0.0 **** 0.0
2649 C 84.8162 55.1386 61.5353 C 0.0 **** 0.0
2650 C 85.4519 56.0252 60.6303 C 0.0 **** 0.0
2651 C 85.6024 57.374 60.9649 C 0.0 **** 0.0
2652 C 85.0381 57.8655 62.1026 C 0.0 **** 0.0
2653 C 84.4977 56.998 63.1016 C 0.0 **** 0.0
2654 C 82.4562 47.3671 46.7682 C 0.0 **** 0.0
2655 C 81.4319 48.4463 46.9762 C 0.0 **** 0.0
2656 C 84.1774 47.0007 44.3431 C 0.0 **** 0.0
2657 C 83.7082 48.5195 49.2143 C 0.0 **** 0.0
2658 C 86.6604 48.6169 44.135 C 0.0 **** 0.0
2659 C 90.021 51.7182 46.1359 C 0.0 **** 0.0
2660 C 90.576 53.8404 48.1184 C 0.0 **** 0.0
2661 O 88.9349 55.5315 49.571 O 0.0 **** 0.0
2662 C 86.1605 58.6796 51.4692 C 0.0 **** 0.0
2663 C 85.7081 58.863 54.4729 C 0.0 **** 0.0
2664 O 87.6462 55.1093 56.222 O 0.0 **** 0.0
2665 O 84.7926 51.6045 52.8686 O 0.0 **** 0.0
2666 O 84.5717 50.0479 55.1209 O 0.0 **** 0.0
2667 O 87.2097 53.1513 58.091 O 0.0 **** 0.0
2668 C 84.1051 57.513 64.4448 C 0.0 **** 0.0
2669 C 85.1707 59.328 62.3852 C 0.0 **** 0.0
2670 H 85.4099 50.5066 49.4561 H 0.0 **** 0.0
2671 H 86.6965 49.1879 49.5811 H 0.0 **** 0.0
2672 H 88.5378 49.3157 46.2851 H 0.0 **** 0.0
2673 H 87.4826 50.7018 45.6306 H 0.0 **** 0.0
2674 H 86.5013 51.1782 51.3136 H 0.0 **** 0.0
2675 H 87.7115 57.1084 55.0754 H 0.0 **** 0.0
2676 H 88.0905 57.6734 53.474 H 0.0 **** 0.0
2677 H 85.3306 56.7365 54.2434 H 0.0 **** 0.0
2678 H 84.4505 57.616 52.3495 H 0.0 **** 0.0
2679 H 85.6316 56.2345 50.6208 H 0.0 **** 0.0
2680 H 85.1619 55.3982 52.039 H 0.0 **** 0.0
2681 H 82.4644 50.8841 57.4836 H 0.0 **** 0.0
2682 H 83.418 49.2312 57.3066 H 0.0 **** 0.0
2683 H 84.0827 49.3139 59.6109 H 0.0 **** 0.0
2684 H 82.3762 49.7121 59.5951 H 0.0 **** 0.0
2685 H 81.693 50.6546 61.7982 H 0.0 **** 0.0
2686 H 83.1178 49.6716 62.0288 H 0.0 **** 0.0
2687 H 83.5002 50.5362 64.2059 H 0.0 **** 0.0
2688 H 81.6289 50.4588 64.0532 H 0.0 **** 0.0
2689 H 82.4024 52.5551 65.0161 H 0.0 **** 0.0
2690 H 81.5259 52.7376 63.4875 H 0.0 **** 0.0
2691 H 84.5402 52.9746 63.8617 H 0.0 **** 0.0
2692 H 82.3821 55.0558 63.5043 H 0.0 **** 0.0
2693 H 83.7267 54.863 64.7168 H 0.0 **** 0.0
2694 H 85.7959 55.682 59.6822 H 0.0 **** 0.0
2695 H 86.1178 58.0271 60.2522 H 0.0 **** 0.0
2696 H 82.3621 46.5747 47.5122 H 0.0 **** 0.0
2697 H 82.1345 46.9568 45.8004 H 0.0 **** 0.0
2698 H 81.0285 48.9326 46.0146 H 0.0 **** 0.0
2699 H 81.8402 49.2586 47.5583 H 0.0 **** 0.0
2700 H 80.5699 48.0731 47.5209 H 0.0 **** 0.0
2701 H 85.0568 46.455 43.9052 H 0.0 **** 0.0
2702 H 83.7157 47.577 43.554 H 0.0 **** 0.0
2703 H 83.548 46.1836 44.6087 H 0.0 **** 0.0
2704 H 82.9765 49.3383 49.3699 H 0.0 **** 0.0
2705 H 84.4047 48.6482 50.0642 H 0.0 **** 0.0
2706 H 83.2786 47.5218 49.4082 H 0.0 **** 0.0
2707 H 87.6816 49.0566 44.1335 H 0.0 **** 0.0
2708 H 85.9964 49.1184 43.3487 H 0.0 **** 0.0
2709 H 86.8856 47.6025 43.8006 H 0.0 **** 0.0
2710 H 90.2069 52.6953 45.747 H 0.0 **** 0.0
2711 H 89.6402 51.1117 45.2872 H 0.0 **** 0.0
2712 H 90.9926 51.2927 46.4971 H 0.0 **** 0.0
2713 H 90.3652 54.7208 47.5067 H 0.0 **** 0.0
2714 H 91.388 53.2028 47.7166 H 0.0 **** 0.0
2715 H 90.9333 54.1668 49.1226 H 0.0 **** 0.0
2716 H 88.8907 56.3337 50.1835 H 0.0 **** 0.0
2717 H 86.0371 59.6926 51.901 H 0.0 **** 0.0
2718 H 85.7972 58.7291 50.4557 H 0.0 **** 0.0
2719 H 87.2207 58.4932 51.3102 H 0.0 **** 0.0
2720 H 85.8346 58.6431 55.5793 H 0.0 **** 0.0
2721 H 84.7032 59.2713 54.3424 H 0.0 **** 0.0
2722 H 86.4215 59.65 54.1329 H 0.0 **** 0.0
2723 H 87.2321 55.3233 57.1387 H 0.0 **** 0.0
2724 H 83.8939 51.3313 53.2592 H 0.0 **** 0.0
2725 H 83.1002 57.2133 64.7392 H 0.0 **** 0.0
2726 H 84.0052 58.6305 64.4059 H 0.0 **** 0.0
2727 H 84.7561 57.1432 65.2345 H 0.0 **** 0.0
2728 H 85.6239 59.8604 61.544 H 0.0 **** 0.0
2729 H 85.8615 59.4829 63.2342 H 0.0 **** 0.0
2730 H 84.1752 59.7764 62.4749 H 0.0 **** 0.0
2731 C 46.6844 111.663 24.8579 C 0.0 **** 0.0
2732 C 47.604 110.579 24.8146 C 0.0 **** 0.0
2733 C 47.152 109.247 24.7945 C 0.0 **** 0.0
2734 C 45.7568 108.961 24.6747 C 0.0 **** 0.0
2735 C 44.8077 110.025 24.7559 C 0.0 **** 0.0
2736 C 45.2834 111.347 24.9644 C 0.0 **** 0.0
2737 C 45.3382 107.523 24.4554 C 0.0 **** 0.0
2738 C 46.2719 106.945 23.3288 C 0.0 **** 0.0
2739 C 47.6562 107.219 23.4402 C 0.0 **** 0.0
2740 C 48.0761 108.087 24.6564 C 0.0 **** 0.0
2741 C 48.5674 106.968 22.3931 C 0.0 **** 0.0
2742 C 48.049 106.39 21.2105 C 0.0 **** 0.0
2743 C 46.7171 105.904 21.1721 C 0.0 **** 0.0
2744 C 45.7887 106.316 22.1576 C 0.0 **** 0.0
2745 C 44.4109 106.119 21.8399 C 0.0 **** 0.0
2746 C 43.9572 105.482 20.7529 C 0.0 **** 0.0
2747 C 44.9307 104.73 20.0271 C 0.0 **** 0.0
2748 C 46.2953 104.981 20.1871 C 0.0 **** 0.0
2749 C 44.4621 103.428 19.3526 C 0.0 **** 0.0
2750 C 42.9446 103.129 19.4344 C 0.0 **** 0.0
2751 C 42.069 104.349 19.7276 C 0.0 **** 0.0
2752 C 42.5818 105.468 20.3786 C 0.0 **** 0.0
2753 C 42.6437 102.025 20.4579 C 0.0 **** 0.0
2754 C 43.5903 102.023 21.6785 C 0.0 **** 0.0
2755 C 45.0662 101.977 21.3073 C 0.0 **** 0.0
2756 C 45.2549 102.175 19.803 C 0.0 **** 0.0
2757 C 41.6849 106.537 20.6596 C 0.0 **** 0.0
2758 C 40.2496 106.38 20.4889 C 0.0 **** 0.0
2759 C 39.7653 105.185 19.9341 C 0.0 **** 0.0
2760 C 40.664 104.187 19.5086 C 0.0 **** 0.0
2761 C 38.2806 105.089 19.7671 C 0.0 **** 0.0
2762 C 37.5003 106.342 19.471 C 0.0 **** 0.0
2763 C 37.948 107.536 20.0174 C 0.0 **** 0.0
2764 C 39.305 107.549 20.6803 C 0.0 **** 0.0
2765 C 36.9249 108.619 20.1645 C 0.0 **** 0.0
2766 C 36.0877 108.796 18.9365 C 0.0 **** 0.0
2767 C 35.6112 107.471 18.4116 C 0.0 **** 0.0
2768 C 36.2837 106.3 18.781 C 0.0 **** 0.0
2769 N 35.7781 105.088 18.4305 N 0.0 **** 0.0
2770 C 34.6115 104.946 17.7496 C 0.0 **** 0.0
2771 C 33.9481 106.093 17.2484 C 0.0 **** 0.0
2772 C 34.4712 107.346 17.5545 C 0.0 **** 0.0
2773 C 33.9035 108.592 16.8959 C 0.0 **** 0.0
2774 C 32.6828 108.359 15.9602 C 0.0 **** 0.0
2775 C 31.8586 107.102 16.3843 C 0.0 **** 0.0
2776 C 32.7647 105.884 16.367 C 0.0 **** 0.0
2777 C 31.9464 104.682 16.8328 C 0.0 **** 0.0
2778 C 32.804 103.437 16.9462 C 0.0 **** 0.0
2779 C 34.1172 103.642 17.4336 C 0.0 **** 0.0
2780 C 34.9366 102.548 17.6119 C 0.0 **** 0.0
2781 C 34.4723 101.268 17.2733 C 0.0 **** 0.0
2782 C 33.1702 101.059 16.8882 C 0.0 **** 0.0
2783 C 32.298 102.125 16.8217 C 0.0 **** 0.0
2784 C 44.2931 112.456 25.2082 C 0.0 **** 0.0
2785 C 44.384 112.99 26.6242 C 0.0 **** 0.0
2786 C 47.2076 113.086 24.6455 C 0.0 **** 0.0
2787 C 43.3064 109.747 24.8665 C 0.0 **** 0.0
2788 C 49.0461 110.827 24.4847 C 0.0 **** 0.0
2789 C 50.0618 107.351 22.4913 C 0.0 **** 0.0
2790 C 48.8751 106.579 19.885 C 0.0 **** 0.0
2791 O 47.2915 104.294 19.4652 O 0.0 **** 0.0
2792 C 45.8676 100.725 21.7884 C 0.0 **** 0.0
2793 C 43.154 101.06 22.7806 C 0.0 **** 0.0
2794 O 40.1862 103.059 18.7796 O 0.0 **** 0.0
2795 O 42.2351 107.798 20.9231 O 0.0 **** 0.0
2796 O 39.6015 108.391 21.5187 O 0.0 **** 0.0
2797 O 37.7315 104.029 19.9896 O 0.0 **** 0.0
2798 C 30.8312 101.902 16.4454 C 0.0 **** 0.0
2799 C 32.6721 99.655 16.7904 C 0.0 **** 0.0
2800 H 45.5017 106.917 25.373 H 0.0 **** 0.0
2801 H 44.2791 107.378 24.1183 H 0.0 **** 0.0
2802 H 49.171 108.273 24.6526 H 0.0 **** 0.0
2803 H 47.9591 107.54 25.6066 H 0.0 **** 0.0
2804 H 43.6617 106.382 22.5632 H 0.0 **** 0.0
2805 H 41.6092 102.027 20.7605 H 0.0 **** 0.0
2806 H 42.8082 101.088 19.8928 H 0.0 **** 0.0
2807 H 43.4532 103.002 22.1347 H 0.0 **** 0.0
2808 H 45.5883 102.768 21.8419 H 0.0 **** 0.0
2809 H 44.962 101.25 19.2464 H 0.0 **** 0.0
2810 H 46.3134 102.216 19.5113 H 0.0 **** 0.0
2811 H 36.3039 108.224 21.0251 H 0.0 **** 0.0
2812 H 37.397 109.546 20.531 H 0.0 **** 0.0
2813 H 36.7603 109.206 18.136 H 0.0 **** 0.0
2814 H 35.2752 109.519 19.1021 H 0.0 **** 0.0
2815 H 33.5149 109.283 17.6667 H 0.0 **** 0.0
2816 H 34.7128 109.163 16.3239 H 0.0 **** 0.0
2817 H 33.0735 108.106 14.9338 H 0.0 **** 0.0
2818 H 32.0447 109.242 15.9256 H 0.0 **** 0.0
2819 H 31.0449 106.984 15.6766 H 0.0 **** 0.0
2820 H 31.4348 107.294 17.4142 H 0.0 **** 0.0
2821 H 33.1396 105.612 15.3416 H 0.0 **** 0.0
2822 H 31.5469 104.908 17.8672 H 0.0 **** 0.0
2823 H 31.1214 104.534 16.1779 H 0.0 **** 0.0
2824 H 35.9493 102.642 17.8677 H 0.0 **** 0.0
2825 H 35.226 100.433 17.2593 H 0.0 **** 0.0
2826 H 43.2809 112.194 24.983 H 0.0 **** 0.0
2827 H 44.4733 113.31 24.4925 H 0.0 **** 0.0
2828 H 45.371 113.407 26.8193 H 0.0 **** 0.0
2829 H 44.1877 112.208 27.3888 H 0.0 **** 0.0
2830 H 43.6902 113.747 26.7671 H 0.0 **** 0.0
2831 H 48.0722 113.279 25.3335 H 0.0 **** 0.0
2832 H 46.4561 113.85 24.8197 H 0.0 **** 0.0
2833 H 47.6316 113.265 23.625 H 0.0 **** 0.0
2834 H 42.9046 108.733 24.7583 H 0.0 **** 0.0
2835 H 42.6236 110.348 24.2348 H 0.0 **** 0.0
2836 H 42.9385 109.926 25.9317 H 0.0 **** 0.0
2837 H 49.3272 110.258 23.5666 H 0.0 **** 0.0
2838 H 49.7044 110.496 25.2864 H 0.0 **** 0.0
2839 H 49.3074 111.842 24.2448 H 0.0 **** 0.0
2840 H 50.2219 108.428 22.3804 H 0.0 **** 0.0
2841 H 50.6121 106.795 21.7466 H 0.0 **** 0.0
2842 H 50.5723 106.98 23.4178 H 0.0 **** 0.0
2843 H 49.7778 105.935 19.9433 H 0.0 **** 0.0
2844 H 49.1464 107.658 19.7541 H 0.0 **** 0.0
2845 H 48.299 106.433 18.9744 H 0.0 **** 0.0
2846 H 47.0545 104.154 18.4958 H 0.0 **** 0.0
2847 H 45.8492 100.736 22.8888 H 0.0 **** 0.0
2848 H 46.9438 100.818 21.5022 H 0.0 **** 0.0
2849 H 45.425 99.7925 21.4484 H 0.0 **** 0.0
2850 H 42.1109 101.252 23.0373 H 0.0 **** 0.0
2851 H 43.8226 101.214 23.659 H 0.0 **** 0.0
2852 H 43.1509 99.9561 22.5033 H 0.0 **** 0.0
2853 H 39.2576 103.159 18.3985 H 0.0 **** 0.0
2854 H 41.685 108.57 20.5582 H 0.0 **** 0.0
2855 H 30.1542 102.79 16.5858 H 0.0 **** 0.0
2856 H 30.425 101.155 17.1109 H 0.0 **** 0.0
2857 H 30.765 101.697 15.3283 H 0.0 **** 0.0
2858 H 31.6911 99.4754 16.3497 H 0.0 **** 0.0
2859 H 32.734 99.154 17.7928 H 0.0 **** 0.0
2860 H 33.2896 99.1183 16.0084 H 0.0 **** 0.0
2861 C 83.4409 21.5215 92.631 C 0.0 **** 0.0
2862 C 83.8412 22.7325 93.2894 C 0.0 **** 0.0
2863 C 82.9045 23.5752 93.9381 C 0.0 **** 0.0
2864 C 81.5641 23.0983 94.0393 C 0.0 **** 0.0
2865 C 81.2126 21.7395 93.6121 C 0.0 **** 0.0
2866 C 82.1639 20.992 92.8441 C 0.0 **** 0.0
2867 C 80.5133 23.9817 94.6221 C 0.0 **** 0.0
2868 C 80.8998 25.4096 94.9428 C 0.0 **** 0.0
2869 C 82.1987 25.906 94.7892 C 0.0 **** 0.0
2870 C 83.3323 24.9432 94.4021 C 0.0 **** 0.0
2871 C 82.4491 27.3031 95.0941 C 0.0 **** 0.0
2872 C 81.4036 28.163 95.4362 C 0.0 **** 0.0
2873 C 80.1574 27.598 95.8465 C 0.0 **** 0.0
2874 C 79.8765 26.2751 95.4104 C 0.0 **** 0.0
2875 C 78.5626 25.8175 95.5684 C 0.0 **** 0.0
2876 C 77.6275 26.4871 96.3297 C 0.0 **** 0.0
2877 C 77.9147 27.803 96.7284 C 0.0 **** 0.0
2878 C 79.236 28.2494 96.692 C 0.0 **** 0.0
2879 C 76.8161 28.7416 97.2024 C 0.0 **** 0.0
2880 C 75.4167 28.0686 97.1357 C 0.0 **** 0.0
2881 C 75.3492 26.5778 97.3436 C 0.0 **** 0.0
2882 C 76.4576 25.8368 96.8499 C 0.0 **** 0.0
2883 C 74.5498 28.4997 95.9405 C 0.0 **** 0.0
2884 C 75.3623 28.9403 94.6794 C 0.0 **** 0.0
2885 C 76.3287 30.0439 94.9528 C 0.0 **** 0.0
2886 C 76.8231 30.1045 96.4425 C 0.0 **** 0.0
2887 C 76.5104 24.4309 97.1789 C 0.0 **** 0.0
2888 C 75.3961 23.7662 97.7564 C 0.0 **** 0.0
2889 C 74.3011 24.5371 98.2456 C 0.0 **** 0.0
2890 C 74.3077 25.9416 98.0639 C 0.0 **** 0.0
2891 C 73.2209 23.8707 99.01 C 0.0 **** 0.0
2892 C 73.4916 22.466 99.4894 C 0.0 **** 0.0
2893 C 74.4045 21.6728 98.8386 C 0.0 **** 0.0
2894 C 75.2817 22.2981 97.8516 C 0.0 **** 0.0
2895 C 74.9561 20.4152 99.4768 C 0.0 **** 0.0
2896 C 73.848 19.6461 100.154 C 0.0 **** 0.0
2897 C 72.7984 20.5276 100.847 C 0.0 **** 0.0
2898 C 72.7027 21.8973 100.53 C 0.0 **** 0.0
2899 N 71.8917 22.7096 101.237 N 0.0 **** 0.0
2900 C 71.0195 22.2713 102.194 C 0.0 **** 0.0
2901 C 71.0524 20.9086 102.555 C 0.0 **** 0.0
2902 C 71.9067 20.0218 101.858 C 0.0 **** 0.0
2903 C 71.9158 18.5172 102.152 C 0.0 **** 0.0
2904 C 71.1994 18.1775 103.435 C 0.0 **** 0.0
2905 C 69.8735 18.9435 103.563 C 0.0 **** 0.0
2906 C 70.1602 20.433 103.685 C 0.0 **** 0.0
2907 C 68.869 21.262 103.761 C 0.0 **** 0.0
2908 C 69.2134 22.7204 103.753 C 0.0 **** 0.0
2909 C 70.2117 23.1868 102.898 C 0.0 **** 0.0
2910 C 70.3622 24.5746 102.748 C 0.0 **** 0.0
2911 C 69.6774 25.4679 103.533 C 0.0 **** 0.0
2912 C 68.6864 25.0506 104.386 C 0.0 **** 0.0
2913 C 68.4411 23.6582 104.519 C 0.0 **** 0.0
2914 C 81.7342 19.6643 92.1401 C 0.0 **** 0.0
2915 C 81.0612 19.9557 90.7781 C 0.0 **** 0.0
2916 C 84.4628 20.7189 91.8514 C 0.0 **** 0.0
2917 C 79.8478 21.1445 93.8994 C 0.0 **** 0.0
2918 C 85.2753 23.0391 93.3721 C 0.0 **** 0.0
2919 C 83.8825 27.849 95.0069 C 0.0 **** 0.0
2920 C 81.5896 29.6696 95.6412 C 0.0 **** 0.0
2921 O 79.736 29.2679 97.5278 O 0.0 **** 0.0
2922 C 75.6928 31.4018 94.6869 C 0.0 **** 0.0
2923 C 74.4682 29.074 93.4111 C 0.0 **** 0.0
2924 O 73.3632 26.6626 98.8045 O 0.0 **** 0.0
2925 O 77.7148 23.7884 97.0821 O 0.0 **** 0.0
2926 O 75.8705 21.5909 97.0494 O 0.0 **** 0.0
2927 O 72.1723 24.4811 99.274 O 0.0 **** 0.0
2928 C 67.2584 23.1952 105.286 C 0.0 **** 0.0
2929 C 67.9108 26.0969 105.193 C 0.0 **** 0.0
2930 H 79.6814 24.0457 93.8203 H 0.0 **** 0.0
2931 H 80.1523 23.5497 95.5255 H 0.0 **** 0.0
2932 H 84.0167 24.7848 95.2904 H 0.0 **** 0.0
2933 H 83.8494 25.4093 93.5589 H 0.0 **** 0.0
2934 H 78.2409 24.9177 95.1125 H 0.0 **** 0.0
2935 H 73.8552 27.6173 95.6734 H 0.0 **** 0.0
2936 H 73.9161 29.3268 96.3037 H 0.0 **** 0.0
2937 H 76.0038 28.0481 94.4098 H 0.0 **** 0.0
2938 H 77.2105 29.8746 94.3022 H 0.0 **** 0.0
2939 H 76.2057 30.8067 97.0631 H 0.0 **** 0.0
2940 H 77.8188 30.6353 96.4206 H 0.0 **** 0.0
2941 H 75.4899 19.732 98.8035 H 0.0 **** 0.0
2942 H 75.6319 20.7402 100.31 H 0.0 **** 0.0
2943 H 74.36 18.9301 100.912 H 0.0 **** 0.0
2944 H 73.3652 19.0101 99.3605 H 0.0 **** 0.0
2945 H 71.4706 17.9875 101.276 H 0.0 **** 0.0
2946 H 72.9489 18.1746 102.269 H 0.0 **** 0.0
2947 H 71.8778 18.3873 104.293 H 0.0 **** 0.0
2948 H 70.9992 17.0838 103.459 H 0.0 **** 0.0
2949 H 69.2812 18.5713 104.417 H 0.0 **** 0.0
2950 H 69.2994 18.7657 102.641 H 0.0 **** 0.0
2951 H 70.768 20.6188 104.579 H 0.0 **** 0.0
2952 H 68.2365 20.9726 102.874 H 0.0 **** 0.0
2953 H 68.3688 20.9363 104.658 H 0.0 **** 0.0
2954 H 71.1007 24.9424 102.033 H 0.0 **** 0.0
2955 H 69.9761 26.5014 103.49 H 0.0 **** 0.0
2956 H 81.001 19.1374 92.7269 H 0.0 **** 0.0
2957 H 82.4919 18.8307 92.0081 H 0.0 **** 0.0
2958 H 80.3677 20.8159 90.8279 H 0.0 **** 0.0
2959 H 81.8137 20.2084 89.9613 H 0.0 **** 0.0
2960 H 80.5085 19.0276 90.5106 H 0.0 **** 0.0
2961 H 84.7668 19.8645 92.4576 H 0.0 **** 0.0
2962 H 85.3564 21.3353 91.5464 H 0.0 **** 0.0
2963 H 83.9354 20.3247 90.9432 H 0.0 **** 0.0
2964 H 79.2214 21.8184 94.4807 H 0.0 **** 0.0
2965 H 79.9204 20.2855 94.5569 H 0.0 **** 0.0
2966 H 79.3372 20.8745 92.9618 H 0.0 **** 0.0
2967 H 85.5212 23.861 94.0875 H 0.0 **** 0.0
2968 H 85.6877 23.4096 92.3814 H 0.0 **** 0.0
2969 H 85.8015 22.1434 93.7415 H 0.0 **** 0.0
2970 H 84.0672 28.3541 94.0512 H 0.0 **** 0.0
2971 H 84.6893 27.043 95.2771 H 0.0 **** 0.0
2972 H 84.0439 28.6396 95.7781 H 0.0 **** 0.0
2973 H 80.6471 30.2485 95.5319 H 0.0 **** 0.0
2974 H 82.2968 30.1089 94.9102 H 0.0 **** 0.0
2975 H 82.0098 29.8135 96.6556 H 0.0 **** 0.0
2976 H 78.9977 29.6427 98.1081 H 0.0 **** 0.0
2977 H 74.8104 31.5683 95.3338 H 0.0 **** 0.0
2978 H 75.4109 31.5544 93.6335 H 0.0 **** 0.0
2979 H 76.4273 32.2263 94.9678 H 0.0 **** 0.0
2980 H 73.5991 29.7383 93.6599 H 0.0 **** 0.0
2981 H 74.0186 28.1176 93.0751 H 0.0 **** 0.0
2982 H 75.0513 29.5619 92.6222 H 0.0 **** 0.0
2983 H 73.467 27.643 98.768 H 0.0 **** 0.0
2984 H 77.8125 22.7988 97.2231 H 0.0 **** 0.0
2985 H 66.6596 24.0157 105.751 H 0.0 **** 0.0
2986 H 67.5106 22.4781 106.154 H 0.0 **** 0.0
2987 H 66.5544 22.628 104.675 H 0.0 **** 0.0
2988 H 66.8246 26.0184 104.963 H 0.0 **** 0.0
2989 H 68.2379 27.0995 104.965 H 0.0 **** 0.0
2990 H 68.0926 25.9336 106.294 H 0.0 **** 0.0
2991 C 8.22624 88.0259 52.9947 C 0.0 **** 0.0
2992 C 6.99958 88.1707 53.6946 C 0.0 **** 0.0
2993 C 6.8367 87.5683 54.9699 C 0.0 **** 0.0
2994 C 7.97145 87.0493 55.6384 C 0.0 **** 0.0
2995 C 9.24849 87.1499 54.9891 C 0.0 **** 0.0
2996 C 9.35593 87.5385 53.6614 C 0.0 **** 0.0
2997 C 7.88435 86.5018 57.0429 C 0.0 **** 0.0
2998 C 6.44674 86.293 57.5928 C 0.0 **** 0.0
2999 C 5.32544 86.7444 56.8709 C 0.0 **** 0.0
3000 C 5.49807 87.6057 55.6325 C 0.0 **** 0.0
3001 C 4.04379 86.2082 57.164 C 0.0 **** 0.0
3002 C 3.87318 85.2574 58.2193 C 0.0 **** 0.0
3003 C 4.94514 85.0437 59.1241 C 0.0 **** 0.0
3004 C 6.24424 85.4557 58.7419 C 0.0 **** 0.0
3005 C 7.33358 84.9949 59.5123 C 0.0 **** 0.0
3006 C 7.18002 84.0675 60.5597 C 0.0 **** 0.0
3007 C 5.86843 83.6234 60.8584 C 0.0 **** 0.0
3008 C 4.76343 84.2971 60.2891 C 0.0 **** 0.0
3009 C 5.69146 82.4636 61.8765 C 0.0 **** 0.0
3010 C 6.95389 81.6084 61.9568 C 0.0 **** 0.0
3011 C 8.22542 82.4285 62.0762 C 0.0 **** 0.0
3012 C 8.33733 83.6449 61.3436 C 0.0 **** 0.0
3013 C 6.9953 80.4812 60.8823 C 0.0 **** 0.0
3014 C 5.80999 80.5269 59.9136 C 0.0 **** 0.0
3015 C 4.5279 80.4946 60.6277 C 0.0 **** 0.0
3016 C 4.47026 81.5263 61.772 C 0.0 **** 0.0
3017 C 9.50722 84.3952 61.4595 C 0.0 **** 0.0
3018 C 10.6342 83.8786 62.1754 C 0.0 **** 0.0
3019 C 10.4963 82.6785 62.8921 C 0.0 **** 0.0
3020 C 9.28069 81.9724 62.862 C 0.0 **** 0.0
3021 C 11.6653 82.2436 63.7533 C 0.0 **** 0.0
3022 C 13.035 82.7864 63.5365 C 0.0 **** 0.0
3023 C 13.1777 83.9005 62.692 C 0.0 **** 0.0
3024 C 12.0005 84.4722 62.0479 C 0.0 **** 0.0
3025 C 14.516 84.6905 62.7351 C 0.0 **** 0.0
3026 C 15.7353 83.8107 63.033 C 0.0 **** 0.0
3027 C 15.5024 82.609 63.8813 C 0.0 **** 0.0
3028 C 14.1769 82.1418 64.0558 C 0.0 **** 0.0
3029 N 13.9979 81.0171 64.7929 N 0.0 **** 0.0
3030 C 14.9657 80.3435 65.4474 C 0.0 **** 0.0
3031 C 16.2936 80.7309 65.2823 C 0.0 **** 0.0
3032 C 16.595 81.8941 64.4636 C 0.0 **** 0.0
3033 C 18.0451 82.228 64.1454 C 0.0 **** 0.0
3034 C 19.0442 81.6512 65.1909 C 0.0 **** 0.0
3035 C 18.7783 80.1776 65.4709 C 0.0 **** 0.0
3036 C 17.3598 80.0337 66.0762 C 0.0 **** 0.0
3037 C 17.0554 78.5594 66.2657 C 0.0 **** 0.0
3038 C 15.6029 78.2932 66.6381 C 0.0 **** 0.0
3039 C 14.6333 79.2212 66.2242 C 0.0 **** 0.0
3040 C 13.2862 79.0134 66.6117 C 0.0 **** 0.0
3041 C 12.8777 77.7813 67.2402 C 0.0 **** 0.0
3042 C 13.7805 76.7351 67.3783 C 0.0 **** 0.0
3043 C 15.1832 77.0101 67.1497 C 0.0 **** 0.0
3044 C 10.7377 87.4312 52.9452 C 0.0 **** 0.0
3045 C 11.0471 86.0003 52.5023 C 0.0 **** 0.0
3046 C 8.36231 88.3903 51.5098 C 0.0 **** 0.0
3047 C 10.5435 86.9146 55.7932 C 0.0 **** 0.0
3048 C 5.85538 88.9488 53.0441 C 0.0 **** 0.0
3049 C 2.83063 86.6043 56.3657 C 0.0 **** 0.0
3050 C 2.62335 84.4145 58.3431 C 0.0 **** 0.0
3051 O 3.5267 84.3009 60.9151 O 0.0 **** 0.0
3052 C 4.12887 79.0802 61.1394 C 0.0 **** 0.0
3053 C 5.86007 79.4404 58.8172 C 0.0 **** 0.0
3054 O 9.08566 80.8264 63.6733 O 0.0 **** 0.0
3055 O 9.42769 85.7422 61.1259 O 0.0 **** 0.0
3056 O 12.1762 85.3906 61.2407 O 0.0 **** 0.0
3057 O 11.445 81.4264 64.6553 O 0.0 **** 0.0
3058 C 16.253 75.9287 67.3086 C 0.0 **** 0.0
3059 C 13.3175 75.4365 67.9731 C 0.0 **** 0.0
3060 H 8.46288 85.529 57.0767 H 0.0 **** 0.0
3061 H 8.34202 87.249 57.737 H 0.0 **** 0.0
3062 H 5.22692 88.6566 55.9343 H 0.0 **** 0.0
3063 H 4.71101 87.3248 54.8601 H 0.0 **** 0.0
3064 H 8.3254 85.256 59.1565 H 0.0 **** 0.0
3065 H 7.97941 80.4621 60.3745 H 0.0 **** 0.0
3066 H 6.9466 79.5531 61.4403 H 0.0 **** 0.0
3067 H 5.86531 81.491 59.3392 H 0.0 **** 0.0
3068 H 3.74896 80.7967 59.898 H 0.0 **** 0.0
3069 H 4.48347 81.0289 62.7711 H 0.0 **** 0.0
3070 H 3.48769 82.0176 61.7539 H 0.0 **** 0.0
3071 H 14.6609 85.2427 61.8256 H 0.0 **** 0.0
3072 H 14.3588 85.4505 63.5661 H 0.0 **** 0.0
3073 H 16.4662 84.463 63.5468 H 0.0 **** 0.0
3074 H 16.1038 83.4222 62.0537 H 0.0 **** 0.0
3075 H 18.3912 81.8601 63.1715 H 0.0 **** 0.0
3076 H 18.1773 83.3019 64.1831 H 0.0 **** 0.0
3077 H 18.9777 82.2611 66.1056 H 0.0 **** 0.0
3078 H 20.1203 81.7657 64.8142 H 0.0 **** 0.0
3079 H 19.5771 79.8251 66.1764 H 0.0 **** 0.0
3080 H 18.8427 79.5577 64.5179 H 0.0 **** 0.0
3081 H 17.3747 80.4994 67.1242 H 0.0 **** 0.0
3082 H 17.2547 77.9778 65.3144 H 0.0 **** 0.0
3083 H 17.7522 78.129 67.0167 H 0.0 **** 0.0
3084 H 12.5557 79.7816 66.5062 H 0.0 **** 0.0
3085 H 11.8511 77.6811 67.6192 H 0.0 **** 0.0
3086 H 11.531 87.8425 53.5467 H 0.0 **** 0.0
3087 H 10.8334 88.0784 52.0719 H 0.0 **** 0.0
3088 H 10.1267 85.6103 51.9931 H 0.0 **** 0.0
3089 H 11.3143 85.337 53.3765 H 0.0 **** 0.0
3090 H 11.8457 85.9766 51.734 H 0.0 **** 0.0
3091 H 9.08259 89.193 51.3127 H 0.0 **** 0.0
3092 H 7.38025 88.6898 51.0404 H 0.0 **** 0.0
3093 H 8.73731 87.5495 50.9279 H 0.0 **** 0.0
3094 H 11.0555 85.9903 55.4738 H 0.0 **** 0.0
3095 H 10.4488 86.8191 56.8642 H 0.0 **** 0.0
3096 H 11.1853 87.8052 55.7052 H 0.0 **** 0.0
3097 H 5.40633 88.403 52.1831 H 0.0 **** 0.0
3098 H 6.21066 89.9519 52.71 H 0.0 **** 0.0
3099 H 5.05576 89.1717 53.737 H 0.0 **** 0.0
3100 H 1.88561 86.5241 56.9733 H 0.0 **** 0.0
3101 H 2.65563 85.9042 55.5333 H 0.0 **** 0.0
3102 H 2.90673 87.6186 55.9574 H 0.0 **** 0.0
3103 H 2.90643 83.3508 58.5479 H 0.0 **** 0.0
3104 H 2.13974 84.3696 57.3742 H 0.0 **** 0.0
3105 H 1.88673 84.8427 59.1107 H 0.0 **** 0.0
3106 H 3.62535 84.2346 61.9492 H 0.0 **** 0.0
3107 H 3.73828 78.464 60.3159 H 0.0 **** 0.0
3108 H 3.28813 79.2258 61.8995 H 0.0 **** 0.0
3109 H 4.94428 78.4628 61.605 H 0.0 **** 0.0
3110 H 6.44971 79.8404 57.9903 H 0.0 **** 0.0
3111 H 4.87443 79.2473 58.3743 H 0.0 **** 0.0
3112 H 6.23985 78.4866 59.173 H 0.0 **** 0.0
3113 H 8.11937 80.5412 63.7921 H 0.0 **** 0.0
3114 H 9.88015 86.4058 61.755 H 0.0 **** 0.0
3115 H 16.684 75.7367 66.3205 H 0.0 **** 0.0
3116 H 15.9022 75.0243 67.7884 H 0.0 **** 0.0
3117 H 17.0942 76.2894 67.9284 H 0.0 **** 0.0
3118 H 13.7683 75.2873 68.9856 H 0.0 **** 0.0
3119 H 13.5686 74.5278 67.3949 H 0.0 **** 0.0
3120 H 12.2119 75.4084 68.102 H 0.0 **** 0.0
3121 C 30.922 57.0063 18.5029 C 0.0 **** 0.0
3122 C 31.2994 58.2887 18.9478 C 0.0 **** 0.0
3123 C 32.4784 58.4011 19.7482 C 0.0 **** 0.0
3124 C 33.4929 57.3999 19.6683 C 0.0 **** 0.0
3125 C 33.1586 56.1196 19.0929 C 0.0 **** 0.0
3126 C 31.8305 55.8871 18.6557 C 0.0 **** 0.0
3127 C 34.9263 57.7699 20.2191 C 0.0 **** 0.0
3128 C 34.8116 58.4754 21.5285 C 0.0 **** 0.0
3129 C 33.7634 59.4164 21.6773 C 0.0 **** 0.0
3130 C 32.798 59.6623 20.4906 C 0.0 **** 0.0
3131 C 33.6104 60.0684 22.9987 C 0.0 **** 0.0
3132 C 34.4661 59.7331 24.0985 C 0.0 **** 0.0
3133 C 35.2958 58.5883 23.9461 C 0.0 **** 0.0
3134 C 35.6051 58.1003 22.6692 C 0.0 **** 0.0
3135 C 36.7136 57.2419 22.564 C 0.0 **** 0.0
3136 C 37.4988 56.8613 23.6596 C 0.0 **** 0.0
3137 C 36.8971 57.0276 24.9132 C 0.0 **** 0.0
3138 C 35.837 57.9534 25.0654 C 0.0 **** 0.0
3139 C 37.1784 56.0082 26.0036 C 0.0 **** 0.0
3140 C 38.7004 55.5866 25.9852 C 0.0 **** 0.0
3141 C 39.4583 55.7141 24.6601 C 0.0 **** 0.0
3142 C 38.7968 56.2826 23.5677 C 0.0 **** 0.0
3143 C 39.0518 54.2937 26.7912 C 0.0 **** 0.0
3144 C 37.8689 53.2944 26.9289 C 0.0 **** 0.0
3145 C 36.5376 53.9301 27.0889 C 0.0 **** 0.0
3146 C 36.2801 54.8187 25.8405 C 0.0 **** 0.0
3147 C 39.585 56.5212 22.3645 C 0.0 **** 0.0
3148 C 40.9105 55.9429 22.2392 C 0.0 **** 0.0
3149 C 41.5328 55.394 23.3765 C 0.0 **** 0.0
3150 C 40.8642 55.4329 24.5856 C 0.0 **** 0.0
3151 C 42.9022 54.8058 23.2856 C 0.0 **** 0.0
3152 C 43.7678 55.1811 22.1385 C 0.0 **** 0.0
3153 C 43.1657 55.7935 21.0411 C 0.0 **** 0.0
3154 C 41.7396 56.0772 21.0222 C 0.0 **** 0.0
3155 C 43.8954 55.841 19.745 C 0.0 **** 0.0
3156 C 45.3976 56.0267 19.9663 C 0.0 **** 0.0
3157 C 46.0092 55.2956 21.1489 C 0.0 **** 0.0
3158 C 45.1475 54.896 22.1841 C 0.0 **** 0.0
3159 N 45.6935 54.2729 23.287 N 0.0 **** 0.0
3160 C 46.9996 54.0024 23.4333 C 0.0 **** 0.0
3161 C 47.9171 54.5494 22.541 C 0.0 **** 0.0
3162 C 47.4111 55.1764 21.3584 C 0.0 **** 0.0
3163 C 48.3887 55.4151 20.2008 C 0.0 **** 0.0
3164 C 49.8341 55.6864 20.6743 C 0.0 **** 0.0
3165 C 50.2734 54.5581 21.6057 C 0.0 **** 0.0
3166 C 49.4165 54.5723 22.8877 C 0.0 **** 0.0
3167 C 49.8267 53.4128 23.7889 C 0.0 **** 0.0
3168 C 48.8317 53.1905 24.8653 C 0.0 **** 0.0
3169 C 47.4454 53.2486 24.4978 C 0.0 **** 0.0
3170 C 46.5027 52.5383 25.2698 C 0.0 **** 0.0
3171 C 46.936 51.7539 26.3238 C 0.0 **** 0.0
3172 C 48.2532 51.8024 26.7869 C 0.0 **** 0.0
3173 C 49.2273 52.5183 26.0845 C 0.0 **** 0.0
3174 C 31.4278 54.4718 18.1492 C 0.0 **** 0.0
3175 C 31.497 54.3015 16.5996 C 0.0 **** 0.0
3176 C 29.5394 56.8387 17.9619 C 0.0 **** 0.0
3177 C 34.3124 55.2434 18.7254 C 0.0 **** 0.0
3178 C 30.5577 59.5482 18.5951 C 0.0 **** 0.0
3179 C 32.5463 61.1309 23.186 C 0.0 **** 0.0
3180 C 34.5187 60.6251 25.3302 C 0.0 **** 0.0
3181 O 35.2799 58.2302 26.2925 O 0.0 **** 0.0
3182 C 36.3968 54.6707 28.433 C 0.0 **** 0.0
3183 C 38.1868 52.3053 28.0848 C 0.0 **** 0.0
3184 O 41.6058 55.1964 25.7674 O 0.0 **** 0.0
3185 O 39.1044 57.4133 21.3954 O 0.0 **** 0.0
3186 O 41.2161 56.3976 19.9735 O 0.0 **** 0.0
3187 O 43.2694 54.0147 24.1561 O 0.0 **** 0.0
3188 C 50.6288 52.6045 26.6653 C 0.0 **** 0.0
3189 C 48.615 50.999 27.9585 C 0.0 **** 0.0
3190 H 35.5215 56.8362 20.2323 H 0.0 **** 0.0
3191 H 35.4184 58.4637 19.4835 H 0.0 **** 0.0
3192 H 33.214 60.4398 19.7733 H 0.0 **** 0.0
3193 H 31.8586 60.0417 20.9413 H 0.0 **** 0.0
3194 H 37.0209 56.9088 21.5709 H 0.0 **** 0.0
3195 H 39.9001 53.6919 26.2589 H 0.0 **** 0.0
3196 H 39.3949 54.6862 27.8104 H 0.0 **** 0.0
3197 H 37.8339 52.6345 26.0409 H 0.0 **** 0.0
3198 H 35.7051 53.2322 27.0477 H 0.0 **** 0.0
3199 H 35.1945 55.1569 25.8824 H 0.0 **** 0.0
3200 H 36.4006 54.2272 24.8431 H 0.0 **** 0.0
3201 H 43.7412 54.9461 19.1218 H 0.0 **** 0.0
3202 H 43.471 56.7531 19.1421 H 0.0 **** 0.0
3203 H 45.6043 57.1529 20.1285 H 0.0 **** 0.0
3204 H 45.8412 55.6239 19.0572 H 0.0 **** 0.0
3205 H 48.4058 54.5295 19.5312 H 0.0 **** 0.0
3206 H 48.0749 56.2534 19.5241 H 0.0 **** 0.0
3207 H 49.9074 56.6811 21.2064 H 0.0 **** 0.0
3208 H 50.5446 55.7331 19.8463 H 0.0 **** 0.0
3209 H 51.3709 54.658 21.8939 H 0.0 **** 0.0
3210 H 50.1978 53.5852 21.0692 H 0.0 **** 0.0
3211 H 49.5301 55.5522 23.4206 H 0.0 **** 0.0
3212 H 49.9158 52.4582 23.2168 H 0.0 **** 0.0
3213 H 50.8556 53.5861 24.1263 H 0.0 **** 0.0
3214 H 45.4301 52.4928 24.9895 H 0.0 **** 0.0
3215 H 46.1645 51.1704 26.8009 H 0.0 **** 0.0
3216 H 30.3903 54.3016 18.4444 H 0.0 **** 0.0
3217 H 31.9973 53.7039 18.7155 H 0.0 **** 0.0
3218 H 30.9655 55.1403 16.1168 H 0.0 **** 0.0
3219 H 30.9849 53.3285 16.3499 H 0.0 **** 0.0
3220 H 32.5516 54.2579 16.2851 H 0.0 **** 0.0
3221 H 29.1285 55.8437 18.207 H 0.0 **** 0.0
3222 H 29.6036 56.8885 16.9051 H 0.0 **** 0.0
3223 H 28.802 57.6126 18.363 H 0.0 **** 0.0
3224 H 35.127 55.7777 18.1843 H 0.0 **** 0.0
3225 H 34.0221 54.4567 17.9992 H 0.0 **** 0.0
3226 H 34.7352 54.7436 19.5975 H 0.0 **** 0.0
3227 H 31.2462 60.3358 18.2256 H 0.0 **** 0.0
3228 H 30.0914 60.0094 19.5267 H 0.0 **** 0.0
3229 H 29.808 59.4033 17.8279 H 0.0 **** 0.0
3230 H 32.6638 61.9843 22.5151 H 0.0 **** 0.0
3231 H 32.4226 61.4387 24.2562 H 0.0 **** 0.0
3232 H 31.5931 60.6873 22.9936 H 0.0 **** 0.0
3233 H 33.6934 60.3961 26.0304 H 0.0 **** 0.0
3234 H 34.4468 61.6906 25.0254 H 0.0 **** 0.0
3235 H 35.5076 60.548 25.8923 H 0.0 **** 0.0
3236 H 35.829 57.9319 27.0997 H 0.0 **** 0.0
3237 H 36.3742 53.9774 29.2745 H 0.0 **** 0.0
3238 H 35.4945 55.3251 28.4279 H 0.0 **** 0.0
3239 H 37.2532 55.2927 28.6789 H 0.0 **** 0.0
3240 H 38.922 51.5338 27.7807 H 0.0 **** 0.0
3241 H 37.303 51.8513 28.5452 H 0.0 **** 0.0
3242 H 38.6481 52.8585 28.9118 H 0.0 **** 0.0
3243 H 42.5041 55.6045 25.7021 H 0.0 **** 0.0
3244 H 39.8774 57.9357 21.0247 H 0.0 **** 0.0
3245 H 51.3011 52.1375 25.9702 H 0.0 **** 0.0
3246 H 50.7617 52.0585 27.644 H 0.0 **** 0.0
3247 H 50.8426 53.7012 26.7858 H 0.0 **** 0.0
3248 H 49.3269 50.2376 27.6473 H 0.0 **** 0.0
3249 H 47.7207 50.5216 28.3732 H 0.0 **** 0.0
3250 H 49.0213 51.5361 28.8469 H 0.0 **** 0.0
3251 C 29.39 82.5873 77.3941 C 0.0 **** 0.0
3252 C 28.5028 83.6611 77.7063 C 0.0 **** 0.0
3253 C 28.8421 84.9795 77.3529 C 0.0 **** 0.0
3254 C 29.9601 85.2511 76.54 C 0.0 **** 0.0
3255 C 30.7489 84.1613 76.0354 C 0.0 **** 0.0
3256 C 30.5026 82.8425 76.5293 C 0.0 **** 0.0
3257 C 30.3871 86.6773 76.2891 C 0.0 **** 0.0
3258 C 29.5994 87.7804 77.0121 C 0.0 **** 0.0
3259 C 28.4007 87.4837 77.6401 C 0.0 **** 0.0
3260 C 27.9083 86.0885 77.7102 C 0.0 **** 0.0
3261 C 27.6452 88.5836 78.1723 C 0.0 **** 0.0
3262 C 28.1882 89.8935 78.345 C 0.0 **** 0.0
3263 C 29.4134 90.195 77.6722 C 0.0 **** 0.0
3264 C 30.1067 89.1353 77.0026 C 0.0 **** 0.0
3265 C 31.3178 89.4647 76.331 C 0.0 **** 0.0
3266 C 32.0261 90.6614 76.5072 C 0.0 **** 0.0
3267 C 31.4246 91.6445 77.3443 C 0.0 **** 0.0
3268 C 30.048 91.4644 77.7898 C 0.0 **** 0.0
3269 C 32.1164 92.978 77.5492 C 0.0 **** 0.0
3270 C 33.5872 93.0787 77.1429 C 0.0 **** 0.0
3271 C 34.1759 92.0059 76.2207 C 0.0 **** 0.0
3272 C 33.3408 90.8737 75.8897 C 0.0 **** 0.0
3273 C 33.8905 94.544 76.9366 C 0.0 **** 0.0
3274 C 33.7469 95.2399 78.3753 C 0.0 **** 0.0
3275 C 32.4339 95.0348 79.0035 C 0.0 **** 0.0
3276 C 32.0904 93.5254 79.0103 C 0.0 **** 0.0
3277 C 33.8222 90.0399 74.8226 C 0.0 **** 0.0
3278 C 35.1987 90.0555 74.4795 C 0.0 **** 0.0
3279 C 36.0546 90.981 75.0307 C 0.0 **** 0.0
3280 C 35.5732 91.9313 75.934 C 0.0 **** 0.0
3281 C 37.4454 91.0653 74.525 C 0.0 **** 0.0
3282 C 37.7806 90.469 73.2566 C 0.0 **** 0.0
3283 C 36.9584 89.4652 72.7393 C 0.0 **** 0.0
3284 C 35.7733 89.108 73.4939 C 0.0 **** 0.0
3285 C 37.1914 88.9247 71.3363 C 0.0 **** 0.0
3286 C 38.6806 88.979 70.9857 C 0.0 **** 0.0
3287 C 39.2423 90.3352 71.2747 C 0.0 **** 0.0
3288 C 38.868 90.9807 72.4822 C 0.0 **** 0.0
3289 N 39.4965 92.1334 72.8773 N 0.0 **** 0.0
3290 C 40.3949 92.7919 72.098 C 0.0 **** 0.0
3291 C 40.7427 92.2704 70.835 C 0.0 **** 0.0
3292 C 40.1523 91.0306 70.405 C 0.0 **** 0.0
3293 C 40.5911 90.4784 69.0254 C 0.0 **** 0.0
3294 C 41.0416 91.535 68.0024 C 0.0 **** 0.0
3295 C 42.0589 92.4581 68.6345 C 0.0 **** 0.0
3296 C 41.4787 93.146 69.9094 C 0.0 **** 0.0
3297 C 42.601 93.8895 70.6285 C 0.0 **** 0.0
3298 C 42.0099 94.6186 71.8398 C 0.0 **** 0.0
3299 C 40.8995 94.0368 72.5311 C 0.0 **** 0.0
3300 C 40.2862 94.7339 73.5946 C 0.0 **** 0.0
3301 C 40.7604 95.959 74.0053 C 0.0 **** 0.0
3302 C 41.8876 96.5408 73.366 C 0.0 **** 0.0
3303 C 42.5315 95.8528 72.3005 C 0.0 **** 0.0
3304 C 31.4472 81.7236 76.1672 C 0.0 **** 0.0
3305 C 32.7649 81.868 76.942 C 0.0 **** 0.0
3306 C 29.3713 81.2168 78.0953 C 0.0 **** 0.0
3307 C 31.8524 84.458 75.0034 C 0.0 **** 0.0
3308 C 27.2504 83.3885 78.4878 C 0.0 **** 0.0
3309 C 26.1861 88.31 78.5769 C 0.0 **** 0.0
3310 C 27.4363 90.97 79.1094 C 0.0 **** 0.0
3311 O 29.3577 92.5178 78.3723 O 0.0 **** 0.0
3312 C 31.289 95.8165 78.301 C 0.0 **** 0.0
3313 C 34.1261 96.6913 78.1866 C 0.0 **** 0.0
3314 O 36.4904 92.7293 76.5959 O 0.0 **** 0.0
3315 O 32.9072 89.4482 73.9689 O 0.0 **** 0.0
3316 O 35.2756 88.0126 73.3559 O 0.0 **** 0.0
3317 O 38.3189 91.588 75.206 O 0.0 **** 0.0
3318 C 43.7509 96.5159 71.6101 C 0.0 **** 0.0
3319 C 42.392 97.7768 74.0176 C 0.0 **** 0.0
3320 H 31.4228 86.7613 76.6354 H 0.0 **** 0.0
3321 H 30.3592 86.8731 75.1797 H 0.0 **** 0.0
3322 H 27.0383 86.0267 77.0445 H 0.0 **** 0.0
3323 H 27.6425 85.9072 78.7731 H 0.0 **** 0.0
3324 H 31.7457 88.7092 75.6743 H 0.0 **** 0.0
3325 H 34.923 94.63 76.5529 H 0.0 **** 0.0
3326 H 33.1539 94.9581 76.1537 H 0.0 **** 0.0
3327 H 34.5243 94.8078 79.0541 H 0.0 **** 0.0
3328 H 32.4059 95.3853 80.0438 H 0.0 **** 0.0
3329 H 31.165 93.3249 79.5757 H 0.0 **** 0.0
3330 H 32.8594 93.0264 79.6485 H 0.0 **** 0.0
3331 H 36.7915 87.8898 71.1886 H 0.0 **** 0.0
3332 H 36.6427 89.565 70.5996 H 0.0 **** 0.0
3333 H 38.8621 88.6411 69.9546 H 0.0 **** 0.0
3334 H 39.2295 88.2883 71.6469 H 0.0 **** 0.0
3335 H 41.4429 89.7423 69.1468 H 0.0 **** 0.0
3336 H 39.7234 89.9529 68.5141 H 0.0 **** 0.0
3337 H 40.1861 92.1331 67.7097 H 0.0 **** 0.0
3338 H 41.4602 91.1321 67.0395 H 0.0 **** 0.0
3339 H 42.4232 93.2738 67.9428 H 0.0 **** 0.0
3340 H 42.9675 91.8537 68.9356 H 0.0 **** 0.0
3341 H 40.6881 93.8862 69.5822 H 0.0 **** 0.0
3342 H 43.3891 93.1797 70.9872 H 0.0 **** 0.0
3343 H 42.9592 94.6542 69.8717 H 0.0 **** 0.0
3344 H 39.442 94.2971 74.1653 H 0.0 **** 0.0
3345 H 40.2325 96.3815 74.854 H 0.0 **** 0.0
3346 H 31.6166 81.6591 75.0684 H 0.0 **** 0.0
3347 H 31.0601 80.7171 76.3553 H 0.0 **** 0.0
3348 H 32.5378 81.8988 78.0049 H 0.0 **** 0.0
3349 H 33.2723 82.8241 76.6695 H 0.0 **** 0.0
3350 H 33.4154 81.0105 76.7003 H 0.0 **** 0.0
3351 H 28.9885 81.3464 79.1697 H 0.0 **** 0.0
3352 H 30.3647 80.7415 78.3084 H 0.0 **** 0.0
3353 H 28.6394 80.4963 77.5664 H 0.0 **** 0.0
3354 H 31.5124 85.0248 74.1073 H 0.0 **** 0.0
3355 H 32.3442 83.5366 74.6544 H 0.0 **** 0.0
3356 H 32.6528 85.0751 75.4537 H 0.0 **** 0.0
3357 H 26.3517 83.7022 77.9705 H 0.0 **** 0.0
3358 H 27.3213 83.905 79.4775 H 0.0 **** 0.0
3359 H 27.0931 82.2998 78.608 H 0.0 **** 0.0
3360 H 25.5523 89.167 78.2648 H 0.0 **** 0.0
3361 H 26.0851 88.2506 79.6779 H 0.0 **** 0.0
3362 H 25.737 87.4096 78.0745 H 0.0 **** 0.0
3363 H 28.0704 91.3875 79.9779 H 0.0 **** 0.0
3364 H 26.5558 90.5805 79.6276 H 0.0 **** 0.0
3365 H 27.1137 91.7925 78.4179 H 0.0 **** 0.0
3366 H 29.6127 93.4498 78.0859 H 0.0 **** 0.0
3367 H 31.3918 96.9292 78.3487 H 0.0 **** 0.0
3368 H 30.3504 95.6904 78.8684 H 0.0 **** 0.0
3369 H 31.1156 95.5063 77.2264 H 0.0 **** 0.0
3370 H 35.2203 96.7479 77.9274 H 0.0 **** 0.0
3371 H 33.9741 97.2453 79.1512 H 0.0 **** 0.0
3372 H 33.5354 97.2223 77.4174 H 0.0 **** 0.0
3373 H 36.2199 92.9388 77.5419 H 0.0 **** 0.0
3374 H 33.2436 89.0172 73.0962 H 0.0 **** 0.0
3375 H 44.4694 95.7719 71.2399 H 0.0 **** 0.0
3376 H 44.3257 97.2193 72.2532 H 0.0 **** 0.0
3377 H 43.462 97.1592 70.7508 H 0.0 **** 0.0
3378 H 42.2208 98.6465 73.3756 H 0.0 **** 0.0
3379 H 43.4837 97.697 74.2437 H 0.0 **** 0.0
3380 H 41.9112 98.0407 74.9866 H 0.0 **** 0.0
3381 C 31.2271 34.3073 34.451 C 0.0 **** 0.0
3382 C 30.6813 33.9222 33.1806 C 0.0 **** 0.0
3383 C 30.9831 34.6568 32.0104 C 0.0 **** 0.0
3384 C 31.628 35.895 32.1486 C 0.0 **** 0.0
3385 C 31.8024 36.4693 33.4558 C 0.0 **** 0.0
3386 C 31.6926 35.6436 34.6084 C 0.0 **** 0.0
3387 C 32.1793 36.6599 30.931 C 0.0 **** 0.0
3388 C 32.3355 35.8222 29.6306 C 0.0 **** 0.0
3389 C 31.6274 34.6134 29.4542 C 0.0 **** 0.0
3390 C 30.7586 34.0519 30.6115 C 0.0 **** 0.0
3391 C 31.6849 33.9337 28.2136 C 0.0 **** 0.0
3392 C 32.5111 34.4367 27.1774 C 0.0 **** 0.0
3393 C 33.4182 35.4954 27.4269 C 0.0 **** 0.0
3394 C 33.1825 36.2691 28.5937 C 0.0 **** 0.0
3395 C 33.9047 37.4678 28.7117 C 0.0 **** 0.0
3396 C 34.8398 37.8771 27.7826 C 0.0 **** 0.0
3397 C 35.1165 37.0844 26.6633 C 0.0 **** 0.0
3398 C 34.4241 35.8634 26.4926 C 0.0 **** 0.0
3399 C 36.2331 37.4656 25.7782 C 0.0 **** 0.0
3400 C 37.3796 37.9612 26.7021 C 0.0 **** 0.0
3401 C 36.8711 39.1406 27.5509 C 0.0 **** 0.0
3402 C 35.5041 39.0912 27.9693 C 0.0 **** 0.0
3403 C 38.5734 38.2535 25.7251 C 0.0 **** 0.0
3404 C 38.2002 39.335 24.6426 C 0.0 **** 0.0
3405 C 37.0378 38.9587 23.8213 C 0.0 **** 0.0
3406 C 35.8151 38.5422 24.7348 C 0.0 **** 0.0
3407 C 34.8607 40.2527 28.5119 C 0.0 **** 0.0
3408 C 35.6601 41.3158 29.0153 C 0.0 **** 0.0
3409 C 37.0285 41.301 28.7639 C 0.0 **** 0.0
3410 C 37.6337 40.2753 27.9608 C 0.0 **** 0.0
3411 C 37.9002 42.2378 29.5072 C 0.0 **** 0.0
3412 C 37.3484 43.4589 30.1008 C 0.0 **** 0.0
3413 C 35.9412 43.5633 30.1954 C 0.0 **** 0.0
3414 C 35.0607 42.4459 29.8058 C 0.0 **** 0.0
3415 C 35.3941 44.7357 30.9606 C 0.0 **** 0.0
3416 C 36.1652 45.9729 30.7416 C 0.0 **** 0.0
3417 C 37.6867 45.7369 30.9225 C 0.0 **** 0.0
3418 C 38.2081 44.509 30.515 C 0.0 **** 0.0
3419 N 39.5628 44.36 30.4248 N 0.0 **** 0.0
3420 C 40.4523 45.3176 30.7722 C 0.0 **** 0.0
3421 C 39.9933 46.5348 31.1891 C 0.0 **** 0.0
3422 C 38.5711 46.7433 31.3181 C 0.0 **** 0.0
3423 C 38.0003 48.0798 31.8733 C 0.0 **** 0.0
3424 C 39.0473 49.102 32.4152 C 0.0 **** 0.0
3425 C 40.3884 49.0291 31.6427 C 0.0 **** 0.0
3426 C 40.9419 47.5507 31.7349 C 0.0 **** 0.0
3427 C 42.3246 47.4942 31.04 C 0.0 **** 0.0
3428 C 42.797 46.0805 30.7838 C 0.0 **** 0.0
3429 C 41.8162 45.0733 30.5734 C 0.0 **** 0.0
3430 C 42.2355 43.7663 30.1598 C 0.0 **** 0.0
3431 C 43.5509 43.5461 29.848 C 0.0 **** 0.0
3432 C 44.4748 44.539 29.9347 C 0.0 **** 0.0
3433 C 44.1435 45.7803 30.4579 C 0.0 **** 0.0
3434 C 31.9596 36.1418 36.031 C 0.0 **** 0.0
3435 C 30.6483 36.4566 36.7938 C 0.0 **** 0.0
3436 C 31.3776 33.3045 35.5421 C 0.0 **** 0.0
3437 C 32.2394 37.9055 33.5805 C 0.0 **** 0.0
3438 C 29.8825 32.6241 33.0309 C 0.0 **** 0.0
3439 C 30.8546 32.7561 27.9805 C 0.0 **** 0.0
3440 C 32.2526 34.0201 25.7403 C 0.0 **** 0.0
3441 O 34.9398 34.8597 25.6295 O 0.0 **** 0.0
3442 C 37.3035 37.9667 22.6995 C 0.0 **** 0.0
3443 C 39.4972 39.6549 23.8455 C 0.0 **** 0.0
3444 O 38.9365 40.4402 27.4843 O 0.0 **** 0.0
3445 O 33.4628 40.2572 28.7101 O 0.0 **** 0.0
3446 O 33.869 42.4798 30.116 O 0.0 **** 0.0
3447 O 39.0729 41.9151 29.7159 O 0.0 **** 0.0
3448 C 45.2482 46.7902 30.6795 C 0.0 **** 0.0
3449 C 45.8983 44.1973 29.5224 C 0.0 **** 0.0
3450 H 31.5715 37.5675 30.732 H 0.0 **** 0.0
3451 H 33.1806 36.991 31.2462 H 0.0 **** 0.0
3452 H 31.0421 32.9816 30.7557 H 0.0 **** 0.0
3453 H 29.651 34.1584 30.3294 H 0.0 **** 0.0
3454 H 33.7687 38.0583 29.615 H 0.0 **** 0.0
3455 H 39.5235 38.5825 26.2074 H 0.0 **** 0.0
3456 H 38.7793 37.23 25.2757 H 0.0 **** 0.0
3457 H 37.9367 40.2746 25.1951 H 0.0 **** 0.0
3458 H 36.6443 39.8446 23.3053 H 0.0 **** 0.0
3459 H 35.033 38.0637 24.062 H 0.0 **** 0.0
3460 H 35.3262 39.4367 25.2072 H 0.0 **** 0.0
3461 H 34.306 44.9461 30.5877 H 0.0 **** 0.0
3462 H 35.3953 44.4869 32.0443 H 0.0 **** 0.0
3463 H 35.7802 46.7878 31.3742 H 0.0 **** 0.0
3464 H 35.9808 46.2954 29.6949 H 0.0 **** 0.0
3465 H 37.4446 48.5788 31.0244 H 0.0 **** 0.0
3466 H 37.2216 47.9112 32.6552 H 0.0 **** 0.0
3467 H 39.2389 48.8404 33.5146 H 0.0 **** 0.0
3468 H 38.5401 50.1022 32.4515 H 0.0 **** 0.0
3469 H 41.0907 49.7481 32.0699 H 0.0 **** 0.0
3470 H 40.2018 49.3139 30.5572 H 0.0 **** 0.0
3471 H 41.1155 47.2314 32.8083 H 0.0 **** 0.0
3472 H 42.3135 48.0635 30.0531 H 0.0 **** 0.0
3473 H 42.9776 47.9933 31.7741 H 0.0 **** 0.0
3474 H 41.5496 42.9514 30.0582 H 0.0 **** 0.0
3475 H 43.7731 42.5679 29.4324 H 0.0 **** 0.0
3476 H 32.5902 37.0885 36.0134 H 0.0 **** 0.0
3477 H 32.5703 35.4253 36.6273 H 0.0 **** 0.0
3478 H 29.9686 35.59 36.7142 H 0.0 **** 0.0
3479 H 30.1576 37.3553 36.2763 H 0.0 **** 0.0
3480 H 30.8505 36.7309 37.8312 H 0.0 **** 0.0
3481 H 31.0032 32.2542 35.2728 H 0.0 **** 0.0
3482 H 30.8535 33.5966 36.4188 H 0.0 **** 0.0
3483 H 32.4063 33.22 35.847 H 0.0 **** 0.0
3484 H 31.9369 38.4959 32.6738 H 0.0 **** 0.0
3485 H 33.3595 37.9514 33.6463 H 0.0 **** 0.0
3486 H 31.7561 38.4635 34.4546 H 0.0 **** 0.0
3487 H 29.2969 32.5627 32.0593 H 0.0 **** 0.0
3488 H 29.1664 32.5479 33.8636 H 0.0 **** 0.0
3489 H 30.5964 31.8178 33.0718 H 0.0 **** 0.0
3490 H 30.9992 32.0511 28.8044 H 0.0 **** 0.0
3491 H 31.2107 32.1587 27.0986 H 0.0 **** 0.0
3492 H 29.846 32.972 27.8156 H 0.0 **** 0.0
3493 H 32.5333 34.8382 25.039 H 0.0 **** 0.0
3494 H 31.1761 33.9907 25.5426 H 0.0 **** 0.0
3495 H 32.7469 33.027 25.5839 H 0.0 **** 0.0
3496 H 35.7445 35.1572 25.0677 H 0.0 **** 0.0
3497 H 37.8436 38.5164 21.8301 H 0.0 **** 0.0
3498 H 36.3696 37.5174 22.2926 H 0.0 **** 0.0
3499 H 37.9308 37.1066 23.0218 H 0.0 **** 0.0
3500 H 40.2982 40.0215 24.5037 H 0.0 **** 0.0
3501 H 39.3257 40.4554 23.1305 H 0.0 **** 0.0
3502 H 39.8307 38.7687 23.2723 H 0.0 **** 0.0
3503 H 39.2143 41.4107 27.3009 H 0.0 **** 0.0
3504 H 33.044 41.0876 28.3079 H 0.0 **** 0.0
3505 H 44.9059 47.8416 31.0107 H 0.0 **** 0.0
3506 H 45.8151 47.0416 29.7571 H 0.0 **** 0.0
3507 H 45.9323 46.3704 31.4245 H 0.0 **** 0.0
3508 H 46.2159 44.9679 28.7314 H 0.0 **** 0.0
3509 H 45.9408 43.2207 28.9936 H 0.0 **** 0.0
3510 H 46.5785 44.2115 30.401 H 0.0 **** 0.0
3511 C 62.8218 10.4755 93.4377 C 0.0 **** 0.0
3512 C 63.3498 9.22088 93.0598 C 0.0 **** 0.0
3513 C 63.5883 8.96634 91.693 C 0.0 **** 0.0
3514 C 63.1003 9.82031 90.7023 C 0.0 **** 0.0
3515 C 62.3707 10.9558 91.0689 C 0.0 **** 0.0
3516 C 62.2989 11.3523 92.4616 C 0.0 **** 0.0
3517 C 63.4192 9.55445 89.2329 C 0.0 **** 0.0
3518 C 64.5244 8.54459 88.9159 C 0.0 **** 0.0
3519 C 65.0682 7.80327 89.9955 C 0.0 **** 0.0
3520 C 64.3848 7.73923 91.316 C 0.0 **** 0.0
3521 C 66.2575 7.01796 89.7875 C 0.0 **** 0.0
3522 C 66.9262 7.09507 88.5275 C 0.0 **** 0.0
3523 C 66.3123 7.8006 87.4555 C 0.0 **** 0.0
3524 C 65.0444 8.44595 87.628 C 0.0 **** 0.0
3525 C 64.3436 8.97608 86.517 C 0.0 **** 0.0
3526 C 64.8142 8.8246 85.2142 C 0.0 **** 0.0
3527 C 66.1104 8.29619 85.0464 C 0.0 **** 0.0
3528 C 66.9312 7.98952 86.1961 C 0.0 **** 0.0
3529 C 66.7389 8.2622 83.6374 C 0.0 **** 0.0
3530 C 66.0035 8.97388 82.4784 C 0.0 **** 0.0
3531 C 64.7765 9.75508 82.9122 C 0.0 **** 0.0
3532 C 64.0972 9.41104 84.1032 C 0.0 **** 0.0
3533 C 65.6557 8.10094 81.294 C 0.0 **** 0.0
3534 C 66.7971 7.20253 80.7714 C 0.0 **** 0.0
3535 C 67.8565 6.91035 81.7705 C 0.0 **** 0.0
3536 C 67.2788 6.87196 83.24 C 0.0 **** 0.0
3537 C 62.7336 9.70664 84.2154 C 0.0 **** 0.0
3538 C 62.1124 10.6125 83.3214 C 0.0 **** 0.0
3539 C 62.8729 11.1978 82.2933 C 0.0 **** 0.0
3540 C 64.1903 10.7165 82.0377 C 0.0 **** 0.0
3541 C 62.3921 12.4903 81.6453 C 0.0 **** 0.0
3542 C 60.9751 12.9004 81.8682 C 0.0 **** 0.0
3543 C 60.2121 12.2101 82.7847 C 0.0 **** 0.0
3544 C 60.7746 11.0979 83.5988 C 0.0 **** 0.0
3545 C 58.7432 12.5812 82.949 C 0.0 **** 0.0
3546 C 58.1151 12.9906 81.6176 C 0.0 **** 0.0
3547 C 58.9603 14.1291 81.0644 C 0.0 **** 0.0
3548 C 60.3724 13.9569 81.1051 C 0.0 **** 0.0
3549 N 61.1583 14.8532 80.4813 N 0.0 **** 0.0
3550 C 60.6781 15.9878 79.9502 C 0.0 **** 0.0
3551 C 59.2922 16.2119 79.9627 C 0.0 **** 0.0
3552 C 58.4105 15.2543 80.5142 C 0.0 **** 0.0
3553 C 56.9048 15.5022 80.5441 C 0.0 **** 0.0
3554 C 56.4946 16.9532 80.2079 C 0.0 **** 0.0
3555 C 57.304 17.4599 79.0263 C 0.0 **** 0.0
3556 C 58.7625 17.5029 79.4236 C 0.0 **** 0.0
3557 C 59.5829 17.8942 78.2499 C 0.0 **** 0.0
3558 C 61.0167 18.0734 78.7158 C 0.0 **** 0.0
3559 C 61.5603 17.0237 79.4762 C 0.0 **** 0.0
3560 C 62.9568 16.9641 79.6874 C 0.0 **** 0.0
3561 C 63.7803 18.0001 79.2516 C 0.0 **** 0.0
3562 C 63.2391 19.137 78.6752 C 0.0 **** 0.0
3563 C 61.8462 19.1792 78.3167 C 0.0 **** 0.0
3564 C 61.6899 12.708 92.8561 C 0.0 **** 0.0
3565 C 60.2664 12.567 93.4006 C 0.0 **** 0.0
3566 C 62.939 10.8641 94.9096 C 0.0 **** 0.0
3567 C 61.5994 11.7604 90.0395 C 0.0 **** 0.0
3568 C 63.5727 8.19719 94.142 C 0.0 **** 0.0
3569 C 66.8783 6.25771 90.9801 C 0.0 **** 0.0
3570 C 68.1047 6.19564 88.1755 C 0.0 **** 0.0
3571 O 68.3182 7.91438 86.1504 O 0.0 **** 0.0
3572 C 68.9928 7.94922 81.6906 C 0.0 **** 0.0
3573 C 67.3102 7.59928 79.3813 C 0.0 **** 0.0
3574 O 64.9415 11.2358 80.9466 O 0.0 **** 0.0
3575 O 61.9488 8.95576 85.1058 O 0.0 **** 0.0
3576 O 60.0717 10.5467 84.4266 O 0.0 **** 0.0
3577 O 63.1606 13.1148 80.9135 O 0.0 **** 0.0
3578 C 61.3279 20.323 77.5095 C 0.0 **** 0.0
3579 C 64.1829 20.3234 78.4323 C 0.0 **** 0.0
3580 H 62.4497 9.24537 88.7882 H 0.0 **** 0.0
3581 H 63.7397 10.5853 88.8208 H 0.0 **** 0.0
3582 H 65.1438 7.56575 92.1084 H 0.0 **** 0.0
3583 H 63.7458 6.83061 91.3344 H 0.0 **** 0.0
3584 H 63.511 9.5819 86.6622 H 0.0 **** 0.0
3585 H 64.8068 7.44069 81.6281 H 0.0 **** 0.0
3586 H 65.2532 8.73793 80.4596 H 0.0 **** 0.0
3587 H 66.3702 6.19052 80.6585 H 0.0 **** 0.0
3588 H 68.3126 5.96317 81.5506 H 0.0 **** 0.0
3589 H 68.0337 6.50783 83.9506 H 0.0 **** 0.0
3590 H 66.4489 6.15997 83.313 H 0.0 **** 0.0
3591 H 58.1123 11.7168 83.3013 H 0.0 **** 0.0
3592 H 58.5861 13.3995 83.7411 H 0.0 **** 0.0
3593 H 58.1628 12.1697 80.8877 H 0.0 **** 0.0
3594 H 57.0226 13.1595 81.7491 H 0.0 **** 0.0
3595 H 56.4471 14.7775 79.8909 H 0.0 **** 0.0
3596 H 56.5295 15.2975 81.6006 H 0.0 **** 0.0
3597 H 56.6406 17.592 81.0995 H 0.0 **** 0.0
3598 H 55.4003 16.9598 79.8896 H 0.0 **** 0.0
3599 H 56.8986 18.4903 78.6582 H 0.0 **** 0.0
3600 H 57.1547 16.7972 78.1212 H 0.0 **** 0.0
3601 H 58.8648 18.3029 80.1738 H 0.0 **** 0.0
3602 H 59.551 17.0477 77.5026 H 0.0 **** 0.0
3603 H 59.168 18.7427 77.7724 H 0.0 **** 0.0
3604 H 63.4024 16.1823 80.268 H 0.0 **** 0.0
3605 H 64.868 17.9381 79.3597 H 0.0 **** 0.0
3606 H 61.734 13.4164 92.0364 H 0.0 **** 0.0
3607 H 62.3168 13.1765 93.5788 H 0.0 **** 0.0
3608 H 59.6296 12.2755 92.5387 H 0.0 **** 0.0
3609 H 59.8738 13.5165 93.869 H 0.0 **** 0.0
3610 H 60.2424 11.8004 94.2114 H 0.0 **** 0.0
3611 H 63.9862 10.6057 95.2424 H 0.0 **** 0.0
3612 H 62.215 10.3585 95.631 H 0.0 **** 0.0
3613 H 62.7594 11.9385 95.0133 H 0.0 **** 0.0
3614 H 60.7453 12.29 90.4586 H 0.0 **** 0.0
3615 H 61.1049 11.183 89.2557 H 0.0 **** 0.0
3616 H 62.2793 12.4299 89.5147 H 0.0 **** 0.0
3617 H 63.6965 7.17308 93.7952 H 0.0 **** 0.0
3618 H 62.7042 8.21813 94.9136 H 0.0 **** 0.0
3619 H 64.5376 8.41235 94.6772 H 0.0 **** 0.0
3620 H 67.7169 5.6433 90.7712 H 0.0 **** 0.0
3621 H 66.1176 5.5457 91.3403 H 0.0 **** 0.0
3622 H 67.1829 6.99723 91.7062 H 0.0 **** 0.0
3623 H 67.9626 5.72364 87.1921 H 0.0 **** 0.0
3624 H 68.1463 5.28736 88.7705 H 0.0 **** 0.0
3625 H 69.0527 6.75789 88.2854 H 0.0 **** 0.0
3626 H 68.7811 8.13937 85.2863 H 0.0 **** 0.0
3627 H 69.5861 7.71128 80.7985 H 0.0 **** 0.0
3628 H 69.6377 7.88185 82.5952 H 0.0 **** 0.0
3629 H 68.6159 8.98556 81.6119 H 0.0 **** 0.0
3630 H 66.4511 7.60018 78.6883 H 0.0 **** 0.0
3631 H 68.1016 6.8646 79.0526 H 0.0 **** 0.0
3632 H 67.7004 8.61953 79.4213 H 0.0 **** 0.0
3633 H 65.9197 11.0119 80.9004 H 0.0 **** 0.0
3634 H 61.1407 8.51552 84.6724 H 0.0 **** 0.0
3635 H 60.2577 20.5642 77.6333 H 0.0 **** 0.0
3636 H 61.5342 20.0709 76.4377 H 0.0 **** 0.0
3637 H 61.8361 21.2423 77.7087 H 0.0 **** 0.0
3638 H 64.0561 20.8989 77.4433 H 0.0 **** 0.0
3639 H 65.3019 20.0004 78.4181 H 0.0 **** 0.0
3640 H 64.0677 21.067 79.2966 H 0.0 **** 0.0
3641 C 74.4479 81.684 6.95557 C 0.0 **** 0.0
3642 C 74.7024 80.7457 7.99963 C 0.0 **** 0.0
3643 C 73.9947 80.8029 9.26598 C 0.0 **** 0.0
3644 C 72.8646 81.6179 9.39165 C 0.0 **** 0.0
3645 C 72.5026 82.4305 8.26834 C 0.0 **** 0.0
3646 C 73.3636 82.5859 7.13302 C 0.0 **** 0.0
3647 C 71.9441 81.5304 10.619 C 0.0 **** 0.0
3648 C 72.4806 80.7999 11.8708 C 0.0 **** 0.0
3649 C 73.7408 80.1947 11.8056 C 0.0 **** 0.0
3650 C 74.4473 79.9495 10.4697 C 0.0 **** 0.0
3651 C 74.3732 79.8202 13.0196 C 0.0 **** 0.0
3652 C 73.7455 80.0767 14.2726 C 0.0 **** 0.0
3653 C 72.3666 80.482 14.2978 C 0.0 **** 0.0
3654 C 71.7464 80.8277 13.0918 C 0.0 **** 0.0
3655 C 70.4024 81.263 13.0909 C 0.0 **** 0.0
3656 C 69.6741 81.3775 14.3146 C 0.0 **** 0.0
3657 C 70.353 81.1251 15.5261 C 0.0 **** 0.0
3658 C 71.5807 80.4662 15.4606 C 0.0 **** 0.0
3659 C 69.7566 81.4824 16.8942 C 0.0 **** 0.0
3660 C 68.4218 82.2386 16.778 C 0.0 **** 0.0
3661 C 67.6086 81.9396 15.5569 C 0.0 **** 0.0
3662 C 68.2342 81.5044 14.3472 C 0.0 **** 0.0
3663 C 68.5625 83.7237 17.0882 C 0.0 **** 0.0
3664 C 69.9287 84.289 16.6363 C 0.0 **** 0.0
3665 C 71.0632 83.6767 17.361 C 0.0 **** 0.0
3666 C 70.726 82.2319 17.8406 C 0.0 **** 0.0
3667 C 67.4252 80.8936 13.342 C 0.0 **** 0.0
3668 C 66.0301 81.0583 13.3933 C 0.0 **** 0.0
3669 C 65.4313 81.8105 14.4228 C 0.0 **** 0.0
3670 C 66.2153 82.1118 15.5713 C 0.0 **** 0.0
3671 C 64.0062 82.1943 14.3142 C 0.0 **** 0.0
3672 C 63.116 81.411 13.4575 C 0.0 **** 0.0
3673 C 63.6737 80.7175 12.3478 C 0.0 **** 0.0
3674 C 65.1471 80.452 12.3379 C 0.0 **** 0.0
3675 C 62.799 80.0492 11.3078 C 0.0 **** 0.0
3676 C 61.3234 80.3429 11.514 C 0.0 **** 0.0
3677 C 60.9367 80.344 12.9958 C 0.0 **** 0.0
3678 C 61.7709 81.1364 13.7856 C 0.0 **** 0.0
3679 N 61.302 81.5499 15.0039 N 0.0 **** 0.0
3680 C 60.1916 81.0367 15.6093 C 0.0 **** 0.0
3681 C 59.4429 80.0586 14.8837 C 0.0 **** 0.0
3682 C 59.7742 79.7221 13.5597 C 0.0 **** 0.0
3683 C 58.9127 78.7646 12.7664 C 0.0 **** 0.0
3684 C 58.0763 77.8134 13.6701 C 0.0 **** 0.0
3685 C 57.3996 78.5484 14.7706 C 0.0 **** 0.0
3686 C 58.4455 79.2124 15.6382 C 0.0 **** 0.0
3687 C 57.755 79.9823 16.7971 C 0.0 **** 0.0
3688 C 58.774 80.8095 17.6195 C 0.0 **** 0.0
3689 C 59.9144 81.3372 16.9625 C 0.0 **** 0.0
3690 C 60.8768 82.1085 17.6955 C 0.0 **** 0.0
3691 C 60.766 82.1394 19.0752 C 0.0 **** 0.0
3692 C 59.6862 81.5255 19.733 C 0.0 **** 0.0
3693 C 58.6641 80.9472 18.9958 C 0.0 **** 0.0
3694 C 73.0933 83.6538 6.05374 C 0.0 **** 0.0
3695 C 73.8109 84.9661 6.34969 C 0.0 **** 0.0
3696 C 75.4676 81.8815 5.84959 C 0.0 **** 0.0
3697 C 71.1886 83.2317 8.28312 C 0.0 **** 0.0
3698 C 75.7665 79.686 7.80098 C 0.0 **** 0.0
3699 C 75.7147 79.0963 12.9607 C 0.0 **** 0.0
3700 C 74.5677 80.1762 15.5187 C 0.0 **** 0.0
3701 O 72.0444 79.7837 16.5769 O 0.0 **** 0.0
3702 C 71.6287 84.5252 18.5056 C 0.0 **** 0.0
3703 C 69.8511 85.8392 16.5706 C 0.0 **** 0.0
3704 O 65.5987 82.4243 16.7798 O 0.0 **** 0.0
3705 O 67.9455 79.9651 12.4639 O 0.0 **** 0.0
3706 O 65.569 79.6374 11.4809 O 0.0 **** 0.0
3707 O 63.5702 83.1967 14.8682 O 0.0 **** 0.0
3708 C 57.3285 80.6743 19.7149 C 0.0 **** 0.0
3709 C 59.6951 81.397 21.2074 C 0.0 **** 0.0
3710 H 71.7417 82.5412 10.9387 H 0.0 **** 0.0
3711 H 70.9999 81.0522 10.2356 H 0.0 **** 0.0
3712 H 74.401 78.8397 10.2724 H 0.0 **** 0.0
3713 H 75.4944 80.2275 10.6589 H 0.0 **** 0.0
3714 H 69.9018 81.5193 12.181 H 0.0 **** 0.0
3715 H 67.7223 84.3215 16.5796 H 0.0 **** 0.0
3716 H 68.3614 83.892 18.1771 H 0.0 **** 0.0
3717 H 70.0635 84.022 15.5814 H 0.0 **** 0.0
3718 H 71.8947 83.5561 16.629 H 0.0 **** 0.0
3719 H 70.2183 82.2349 18.8563 H 0.0 **** 0.0
3720 H 71.6595 81.7307 18.0611 H 0.0 **** 0.0
3721 H 63.0871 80.457 10.2796 H 0.0 **** 0.0
3722 H 63.0163 78.9629 11.3527 H 0.0 **** 0.0
3723 H 60.7603 79.5651 10.913 H 0.0 **** 0.0
3724 H 61.0486 81.3066 11.0625 H 0.0 **** 0.0
3725 H 58.2405 79.3478 12.1231 H 0.0 **** 0.0
3726 H 59.5225 78.1629 12.0891 H 0.0 **** 0.0
3727 H 58.7127 77.0417 14.1099 H 0.0 **** 0.0
3728 H 57.3274 77.2495 12.9792 H 0.0 **** 0.0
3729 H 56.7919 77.8835 15.3803 H 0.0 **** 0.0
3730 H 56.6468 79.2447 14.4106 H 0.0 **** 0.0
3731 H 59.0289 78.3546 16.1662 H 0.0 **** 0.0
3732 H 57.04 80.7461 16.3727 H 0.0 **** 0.0
3733 H 57.2796 79.2196 17.4206 H 0.0 **** 0.0
3734 H 61.7311 82.5465 17.2182 H 0.0 **** 0.0
3735 H 61.5547 82.5541 19.5789 H 0.0 **** 0.0
3736 H 72.0038 83.8271 5.97132 H 0.0 **** 0.0
3737 H 73.3879 83.3005 5.03407 H 0.0 **** 0.0
3738 H 74.8408 84.7985 6.82172 H 0.0 **** 0.0
3739 H 73.1574 85.7154 6.97219 H 0.0 **** 0.0
3740 H 74.0407 85.4142 5.3604 H 0.0 **** 0.0
3741 H 76.4649 81.8836 6.32337 H 0.0 **** 0.0
3742 H 75.4166 82.8309 5.35349 H 0.0 **** 0.0
3743 H 75.4744 81.0417 5.11984 H 0.0 **** 0.0
3744 H 71.4265 84.3093 8.25591 H 0.0 **** 0.0
3745 H 70.5333 83.0464 9.1208 H 0.0 **** 0.0
3746 H 70.5857 82.9129 7.43971 H 0.0 **** 0.0
3747 H 75.6115 78.8066 8.49775 H 0.0 **** 0.0
3748 H 76.7619 80.0576 8.09224 H 0.0 **** 0.0
3749 H 75.7165 79.2689 6.77733 H 0.0 **** 0.0
3750 H 76.0725 78.7025 13.963 H 0.0 **** 0.0
3751 H 76.5024 79.7845 12.6499 H 0.0 **** 0.0
3752 H 75.762 78.237 12.2966 H 0.0 **** 0.0
3753 H 74.2796 81.1056 16.0269 H 0.0 **** 0.0
3754 H 75.6257 80.3768 15.2331 H 0.0 **** 0.0
3755 H 74.4602 79.318 16.2171 H 0.0 **** 0.0
3756 H 71.3729 79.5847 17.2417 H 0.0 **** 0.0
3757 H 72.1908 85.4056 18.1498 H 0.0 **** 0.0
3758 H 72.3483 83.9798 19.1547 H 0.0 **** 0.0
3759 H 70.8232 84.8533 19.1968 H 0.0 **** 0.0
3760 H 69.1669 86.1441 15.8064 H 0.0 **** 0.0
3761 H 70.8205 86.3037 16.3237 H 0.0 **** 0.0
3762 H 69.475 86.2597 17.5223 H 0.0 **** 0.0
3763 H 64.6688 82.0869 16.8683 H 0.0 **** 0.0
3764 H 68.5762 79.3132 12.946 H 0.0 **** 0.0
3765 H 56.4061 80.5554 19.0508 H 0.0 **** 0.0
3766 H 56.9776 81.5151 20.3391 H 0.0 **** 0.0
3767 H 57.3876 79.8329 20.4372 H 0.0 **** 0.0
3768 H 58.7913 81.8824 21.7009 H 0.0 **** 0.0
3769 H 60.5939 81.8094 21.6492 H 0.0 **** 0.0
3770 H 59.6507 80.3197 21.5021 H 0.0 **** 0.0
3771 C 30.4327 87.3417 18.3084 C 0.0 **** 0.0
3772 C 30.1555 86.1368 17.6165 C 0.0 **** 0.0
3773 C 30.4004 86.1254 16.2055 C 0.0 **** 0.0
3774 C 30.872 87.2594 15.5525 C 0.0 **** 0.0
3775 C 31.363 88.3456 16.2688 C 0.0 **** 0.0
3776 C 31.1473 88.4027 17.6661 C 0.0 **** 0.0
3777 C 30.903 87.3534 14.0017 C 0.0 **** 0.0
3778 C 30.3587 86.1869 13.2494 C 0.0 **** 0.0
3779 C 30.1657 84.9697 13.9467 C 0.0 **** 0.0
3780 C 30.1785 84.8961 15.4497 C 0.0 **** 0.0
3781 C 29.7956 83.8062 13.2238 C 0.0 **** 0.0
3782 C 29.5301 83.8688 11.8347 C 0.0 **** 0.0
3783 C 29.8821 85.0626 11.1004 C 0.0 **** 0.0
3784 C 30.2863 86.2172 11.8283 C 0.0 **** 0.0
3785 C 30.6876 87.3383 11.0579 C 0.0 **** 0.0
3786 C 30.6543 87.3402 9.67022 C 0.0 **** 0.0
3787 C 30.3748 86.1292 8.99582 C 0.0 **** 0.0
3788 C 30.0216 84.9879 9.68846 C 0.0 **** 0.0
3789 C 30.6237 86.0306 7.52022 C 0.0 **** 0.0
3790 C 31.9921 86.5918 7.19669 C 0.0 **** 0.0
3791 C 32.292 87.9222 7.91303 C 0.0 **** 0.0
3792 C 31.4414 88.326 8.98889 C 0.0 **** 0.0
3793 C 32.2006 86.5326 5.66571 C 0.0 **** 0.0
3794 C 30.9856 87.0737 4.84769 C 0.0 **** 0.0
3795 C 29.6862 86.4875 5.20062 C 0.0 **** 0.0
3796 C 29.4807 86.6899 6.71389 C 0.0 **** 0.0
3797 C 31.5123 89.6918 9.37955 C 0.0 **** 0.0
3798 C 32.5815 90.4797 8.9794 C 0.0 **** 0.0
3799 C 33.6661 89.8376 8.37431 C 0.0 **** 0.0
3800 C 33.4658 88.657 7.67609 C 0.0 **** 0.0
3801 C 35.0079 90.3706 8.81028 C 0.0 **** 0.0
3802 C 35.1616 91.791 9.07459 C 0.0 **** 0.0
3803 C 34.0001 92.5782 9.29854 C 0.0 **** 0.0
3804 C 32.6942 91.9284 9.30664 C 0.0 **** 0.0
3805 C 34.0464 94.0145 9.70181 C 0.0 **** 0.0
3806 C 35.4635 94.6191 9.74101 C 0.0 **** 0.0
3807 C 36.599 93.7424 9.31359 C 0.0 **** 0.0
3808 C 36.4201 92.373 9.0761 C 0.0 **** 0.0
3809 N 37.4792 91.6088 8.77526 N 0.0 **** 0.0
3810 C 38.7529 92.0685 8.794 C 0.0 **** 0.0
3811 C 38.9996 93.4593 8.84969 C 0.0 **** 0.0
3812 C 37.9422 94.3201 9.26329 C 0.0 **** 0.0
3813 C 38.2021 95.7832 9.60055 C 0.0 **** 0.0
3814 C 39.6388 96.2076 9.48046 C 0.0 **** 0.0
3815 C 40.4738 95.4424 8.47606 C 0.0 **** 0.0
3816 C 40.4435 93.9481 8.78834 C 0.0 **** 0.0
3817 C 41.2043 93.1462 7.71168 C 0.0 **** 0.0
3818 C 41.0312 91.6628 7.93168 C 0.0 **** 0.0
3819 C 39.8385 91.1654 8.49646 C 0.0 **** 0.0
3820 C 39.6189 89.7642 8.63118 C 0.0 **** 0.0
3821 C 40.4863 88.8465 8.03681 C 0.0 **** 0.0
3822 C 41.6673 89.3177 7.43189 C 0.0 **** 0.0
3823 C 41.959 90.6975 7.35847 C 0.0 **** 0.0
3824 C 31.5377 89.6346 18.5195 C 0.0 **** 0.0
3825 C 30.6763 90.8851 18.2948 C 0.0 **** 0.0
3826 C 29.8551 87.4577 19.686 C 0.0 **** 0.0
3827 C 32.0311 89.5168 15.5424 C 0.0 **** 0.0
3828 C 29.7641 84.9033 18.392 C 0.0 **** 0.0
3829 C 29.5585 82.459 13.9191 C 0.0 **** 0.0
3830 C 28.7316 82.7594 11.1834 C 0.0 **** 0.0
3831 O 30.0598 83.72 9.10244 O 0.0 **** 0.0
3832 C 29.5987 84.9887 4.80641 C 0.0 **** 0.0
3833 C 31.2439 87.1009 3.34793 C 0.0 **** 0.0
3834 O 34.4223 88.1304 6.79791 O 0.0 **** 0.0
3835 O 30.588 90.2715 10.1898 O 0.0 **** 0.0
3836 O 31.6783 92.5862 9.42703 O 0.0 **** 0.0
3837 O 35.8883 89.5809 9.01303 O 0.0 **** 0.0
3838 C 43.1058 91.204 6.54855 C 0.0 **** 0.0
3839 C 42.5527 88.3321 6.71481 C 0.0 **** 0.0
3840 H 30.3976 88.3183 13.6608 H 0.0 **** 0.0
3841 H 31.9797 87.4055 13.6973 H 0.0 **** 0.0
3842 H 30.9501 84.1774 15.7625 H 0.0 **** 0.0
3843 H 29.2305 84.5079 15.7256 H 0.0 **** 0.0
3844 H 31.089 88.2139 11.559 H 0.0 **** 0.0
3845 H 33.0468 87.1211 5.34123 H 0.0 **** 0.0
3846 H 32.4902 85.4513 5.36431 H 0.0 **** 0.0
3847 H 30.8691 88.1551 5.0705 H 0.0 **** 0.0
3848 H 28.848 86.9865 4.64251 H 0.0 **** 0.0
3849 H 28.5078 86.1836 6.9789 H 0.0 **** 0.0
3850 H 29.3973 87.7622 6.95472 H 0.0 **** 0.0
3851 H 33.4637 94.6478 8.98173 H 0.0 **** 0.0
3852 H 33.666 94.029 10.7665 H 0.0 **** 0.0
3853 H 35.678 95.0732 10.7578 H 0.0 **** 0.0
3854 H 35.4288 95.5849 9.13358 H 0.0 **** 0.0
3855 H 37.6172 96.4183 8.9477 H 0.0 **** 0.0
3856 H 37.8702 95.9903 10.6457 H 0.0 **** 0.0
3857 H 40.1488 96.1113 10.4522 H 0.0 **** 0.0
3858 H 39.6562 97.2649 9.14853 H 0.0 **** 0.0
3859 H 41.5118 95.8978 8.49391 H 0.0 **** 0.0
3860 H 40.0957 95.6158 7.48979 H 0.0 **** 0.0
3861 H 40.912 93.753 9.77954 H 0.0 **** 0.0
3862 H 40.8853 93.365 6.66548 H 0.0 **** 0.0
3863 H 42.2666 93.4522 7.79053 H 0.0 **** 0.0
3864 H 38.6948 89.3653 9.03004 H 0.0 **** 0.0
3865 H 40.2961 87.817 8.13876 H 0.0 **** 0.0
3866 H 32.6042 89.8211 18.2745 H 0.0 **** 0.0
3867 H 31.5312 89.4102 19.6323 H 0.0 **** 0.0
3868 H 31.1937 91.7981 18.6597 H 0.0 **** 0.0
3869 H 29.7006 90.6834 18.8004 H 0.0 **** 0.0
3870 H 30.4753 90.9793 17.1829 H 0.0 **** 0.0
3871 H 29.1246 86.7328 20.0478 H 0.0 **** 0.0
3872 H 29.2635 88.3533 19.7136 H 0.0 **** 0.0
3873 H 30.6199 87.4733 20.4757 H 0.0 **** 0.0
3874 H 32.5898 90.166 16.2032 H 0.0 **** 0.0
3875 H 31.3081 90.0998 14.9391 H 0.0 **** 0.0
3876 H 32.7969 89.1928 14.7709 H 0.0 **** 0.0
3877 H 29.9823 83.9368 17.8782 H 0.0 **** 0.0
3878 H 28.6674 85.0089 18.6063 H 0.0 **** 0.0
3879 H 30.422 84.8722 19.2653 H 0.0 **** 0.0
3880 H 28.4893 82.3528 14.2568 H 0.0 **** 0.0
3881 H 30.2085 82.3876 14.7623 H 0.0 **** 0.0
3882 H 29.8815 81.5617 13.2857 H 0.0 **** 0.0
3883 H 28.0942 83.1278 10.3649 H 0.0 **** 0.0
3884 H 28.0042 82.2702 11.9252 H 0.0 **** 0.0
3885 H 29.3722 81.9675 10.7813 H 0.0 **** 0.0
3886 H 30.3425 83.6884 8.09877 H 0.0 **** 0.0
3887 H 29.426 84.8573 3.73412 H 0.0 **** 0.0
3888 H 28.7787 84.4314 5.34366 H 0.0 **** 0.0
3889 H 30.4838 84.4074 5.15877 H 0.0 **** 0.0
3890 H 32.1419 87.696 3.05749 H 0.0 **** 0.0
3891 H 30.3836 87.4999 2.79324 H 0.0 **** 0.0
3892 H 31.4057 86.0833 3.0239 H 0.0 **** 0.0
3893 H 35.261 88.6962 6.71558 H 0.0 **** 0.0
3894 H 29.8926 89.6365 10.4965 H 0.0 **** 0.0
3895 H 42.6836 91.7949 5.66058 H 0.0 **** 0.0
3896 H 43.7837 90.4276 6.24781 H 0.0 **** 0.0
3897 H 43.7348 91.8666 7.21327 H 0.0 **** 0.0
3898 H 42.6568 88.5947 5.64519 H 0.0 **** 0.0
3899 H 42.0992 87.3085 6.6501 H 0.0 **** 0.0
3900 H 43.5513 88.2993 7.22294 H 0.0 **** 0.0
3901 C 73.897 95.1152 30.5192 C 0.0 **** 0.0
3902 C 73.784 94.6598 29.1586 C 0.0 **** 0.0
3903 C 73.0647 93.4647 28.8299 C 0.0 **** 0.0
3904 C 72.3104 92.7774 29.8068 C 0.0 **** 0.0
3905 C 72.3448 93.2397 31.1969 C 0.0 **** 0.0
3906 C 73.0632 94.4669 31.5179 C 0.0 **** 0.0
3907 C 71.516 91.5403 29.4191 C 0.0 **** 0.0
3908 C 71.5239 91.0632 27.9572 C 0.0 **** 0.0
3909 C 72.2835 91.7949 26.9935 C 0.0 **** 0.0
3910 C 73.0699 93.0105 27.3931 C 0.0 **** 0.0
3911 C 72.3712 91.3564 25.6174 C 0.0 **** 0.0
3912 C 71.5877 90.2486 25.168 C 0.0 **** 0.0
3913 C 70.6337 89.7119 26.0487 C 0.0 **** 0.0
3914 C 70.697 90.0165 27.4575 C 0.0 **** 0.0
3915 C 69.8311 89.304 28.3182 C 0.0 **** 0.0
3916 C 68.9137 88.3515 27.8358 C 0.0 **** 0.0
3917 C 68.9662 88.0004 26.4829 C 0.0 **** 0.0
3918 C 69.623 88.8421 25.5989 C 0.0 **** 0.0
3919 C 68.3523 86.6889 26.0003 C 0.0 **** 0.0
3920 C 67.8696 85.7651 27.1383 C 0.0 **** 0.0
3921 C 67.5323 86.3953 28.44 C 0.0 **** 0.0
3922 C 67.9844 87.6985 28.7356 C 0.0 **** 0.0
3923 C 68.6764 84.4457 27.2764 C 0.0 **** 0.0
3924 C 70.1479 84.7843 27.2441 C 0.0 **** 0.0
3925 C 70.5267 85.303 25.8812 C 0.0 **** 0.0
3926 C 69.3527 85.9444 25.0871 C 0.0 **** 0.0
3927 C 67.4644 88.3342 29.8763 C 0.0 **** 0.0
3928 C 66.6935 87.6304 30.8339 C 0.0 **** 0.0
3929 C 66.3744 86.2743 30.6107 C 0.0 **** 0.0
3930 C 66.6341 85.7254 29.3232 C 0.0 **** 0.0
3931 C 65.7408 85.4985 31.7184 C 0.0 **** 0.0
3932 C 65.18 86.1998 32.9139 C 0.0 **** 0.0
3933 C 65.393 87.5421 33.0626 C 0.0 **** 0.0
3934 C 66.3478 88.2145 32.1814 C 0.0 **** 0.0
3935 C 64.7324 88.3412 34.1795 C 0.0 **** 0.0
3936 C 63.4217 87.6875 34.5814 C 0.0 **** 0.0
3937 C 63.5625 86.2037 34.776 C 0.0 **** 0.0
3938 C 64.4381 85.5174 33.9076 C 0.0 **** 0.0
3939 N 64.3828 84.1132 33.9407 N 0.0 **** 0.0
3940 C 63.6218 83.4041 34.8157 C 0.0 **** 0.0
3941 C 62.8037 84.1123 35.7322 C 0.0 **** 0.0
3942 C 62.7088 85.5199 35.6996 C 0.0 **** 0.0
3943 C 61.8015 86.2893 36.6357 C 0.0 **** 0.0
3944 C 60.8723 85.4589 37.4803 C 0.0 **** 0.0
3945 C 61.5516 84.151 37.9385 C 0.0 **** 0.0
3946 C 61.8525 83.3136 36.6688 C 0.0 **** 0.0
3947 C 62.4228 81.9265 37.0112 C 0.0 **** 0.0
3948 C 62.796 81.2135 35.7071 C 0.0 **** 0.0
3949 C 63.5332 81.9922 34.7502 C 0.0 **** 0.0
3950 C 64.1729 81.2678 33.7166 C 0.0 **** 0.0
3951 C 63.9392 79.8856 33.5764 C 0.0 **** 0.0
3952 C 63.0693 79.1596 34.3844 C 0.0 **** 0.0
3953 C 62.4592 79.8633 35.4573 C 0.0 **** 0.0
3954 C 72.9394 95.1024 32.9158 C 0.0 **** 0.0
3955 C 73.9583 94.5173 33.8608 C 0.0 **** 0.0
3956 C 74.8017 96.3011 30.8894 C 0.0 **** 0.0
3957 C 71.4828 92.5488 32.2465 C 0.0 **** 0.0
3958 C 74.6651 95.3372 28.1419 C 0.0 **** 0.0
3959 C 73.2831 92.1052 24.6469 C 0.0 **** 0.0
3960 C 71.9246 89.6174 23.7683 C 0.0 **** 0.0
3961 O 69.3012 88.866 24.2469 O 0.0 **** 0.0
3962 C 71.1641 84.2513 24.938 C 0.0 **** 0.0
3963 C 70.9717 83.5863 27.7957 C 0.0 **** 0.0
3964 O 66.0747 84.4941 28.9362 O 0.0 **** 0.0
3965 O 67.5818 89.7502 29.8966 O 0.0 **** 0.0
3966 O 66.9073 89.2399 32.5351 O 0.0 **** 0.0
3967 O 65.6584 84.2869 31.586 O 0.0 **** 0.0
3968 C 61.4775 79.1874 36.342 C 0.0 **** 0.0
3969 C 62.8614 77.7169 34.1646 C 0.0 **** 0.0
3970 H 71.9578 90.7677 30.0928 H 0.0 **** 0.0
3971 H 70.457 91.7395 29.6766 H 0.0 **** 0.0
3972 H 72.5761 93.8673 26.8436 H 0.0 **** 0.0
3973 H 74.0843 92.8253 27.0382 H 0.0 **** 0.0
3974 H 69.9374 89.4259 29.3998 H 0.0 **** 0.0
3975 H 68.3717 83.9572 28.2336 H 0.0 **** 0.0
3976 H 68.4529 83.7248 26.4315 H 0.0 **** 0.0
3977 H 70.345 85.6487 27.9755 H 0.0 **** 0.0
3978 H 71.3124 86.0667 25.9967 H 0.0 **** 0.0
3979 H 68.7809 85.2048 24.4895 H 0.0 **** 0.0
3980 H 69.7999 86.6237 24.3918 H 0.0 **** 0.0
3981 H 65.4284 88.3633 35.0569 H 0.0 **** 0.0
3982 H 64.5632 89.3922 33.7967 H 0.0 **** 0.0
3983 H 62.6024 87.863 33.7922 H 0.0 **** 0.0
3984 H 63.0286 88.2067 35.4788 H 0.0 **** 0.0
3985 H 62.3731 86.9621 37.3055 H 0.0 **** 0.0
3986 H 61.1041 86.9816 36.0369 H 0.0 **** 0.0
3987 H 60.0059 85.1704 36.8839 H 0.0 **** 0.0
3988 H 60.5491 85.9954 38.3769 H 0.0 **** 0.0
3989 H 60.8859 83.571 38.6218 H 0.0 **** 0.0
3990 H 62.4672 84.3992 38.5033 H 0.0 **** 0.0
3991 H 60.9208 83.1681 36.0828 H 0.0 **** 0.0
3992 H 63.3019 82.036 37.7224 H 0.0 **** 0.0
3993 H 61.689 81.3812 37.6102 H 0.0 **** 0.0
3994 H 64.8871 81.7551 33.0224 H 0.0 **** 0.0
3995 H 64.4651 79.3477 32.7814 H 0.0 **** 0.0
3996 H 71.9709 95.0149 33.3064 H 0.0 **** 0.0
3997 H 73.0471 96.2174 32.9264 H 0.0 **** 0.0
3998 H 74.9964 94.3864 33.4439 H 0.0 **** 0.0
3999 H 73.5963 93.4928 34.1767 H 0.0 **** 0.0
4000 H 73.9524 95.205 34.7787 H 0.0 **** 0.0
4001 H 75.7628 96.3061 30.3192 H 0.0 **** 0.0
4002 H 75.1719 96.2498 31.9232 H 0.0 **** 0.0
4003 H 74.2805 97.2973 30.7237 H 0.0 **** 0.0
4004 H 71.1297 91.495 32.0095 H 0.0 **** 0.0
4005 H 70.5597 93.1733 32.3532 H 0.0 **** 0.0
4006 H 71.9933 92.4519 33.2324 H 0.0 **** 0.0
4007 H 74.4147 95.1353 27.0796 H 0.0 **** 0.0
4008 H 75.7287 95.1739 28.4048 H 0.0 **** 0.0
4009 H 74.5656 96.446 28.1354 H 0.0 **** 0.0
4010 H 72.8003 92.1359 23.6584 H 0.0 **** 0.0
4011 H 74.2313 91.5232 24.4983 H 0.0 **** 0.0
4012 H 73.4889 93.1177 24.9328 H 0.0 **** 0.0
4013 H 71.6186 88.5499 23.6999 H 0.0 **** 0.0
4014 H 72.9777 89.6571 23.5135 H 0.0 **** 0.0
4015 H 71.4099 90.157 22.9828 H 0.0 **** 0.0
4016 H 68.495 88.3424 23.9728 H 0.0 **** 0.0
4017 H 72.082 83.8029 25.3931 H 0.0 **** 0.0
4018 H 71.4343 84.7191 23.9963 H 0.0 **** 0.0
4019 H 70.4313 83.4295 24.8297 H 0.0 **** 0.0
4020 H 70.6837 83.3183 28.8178 H 0.0 **** 0.0
4021 H 72.063 83.8295 27.8378 H 0.0 **** 0.0
4022 H 70.9026 82.6628 27.164 H 0.0 **** 0.0
4023 H 65.1214 84.38 29.242 H 0.0 **** 0.0
4024 H 66.8878 90.2428 30.4116 H 0.0 **** 0.0
4025 H 61.8493 79.0357 37.3968 H 0.0 **** 0.0
4026 H 61.1483 78.179 36.0336 H 0.0 **** 0.0
4027 H 60.5931 79.7805 36.3828 H 0.0 **** 0.0
4028 H 63.1767 77.2053 35.0998 H 0.0 **** 0.0
4029 H 63.5084 77.3303 33.3796 H 0.0 **** 0.0
4030 H 61.788 77.4341 33.9601 H 0.0 **** 0.0
4031 C 33.4865 26.6244 95.8063 C 0.0 **** 0.0
4032 C 33.9467 27.9065 95.4174 C 0.0 **** 0.0
4033 C 33.1527 28.6828 94.5067 C 0.0 **** 0.0
4034 C 31.8845 28.2122 94.1094 C 0.0 **** 0.0
4035 C 31.3271 27.1243 94.772 C 0.0 **** 0.0
4036 C 32.1343 26.3026 95.5631 C 0.0 **** 0.0
4037 C 31.1552 28.8545 92.9696 C 0.0 **** 0.0
4038 C 31.8294 30.0102 92.3063 C 0.0 **** 0.0
4039 C 32.9886 30.5955 92.7996 C 0.0 **** 0.0
4040 C 33.7694 29.9462 93.897 C 0.0 **** 0.0
4041 C 33.407 31.8666 92.2582 C 0.0 **** 0.0
4042 C 32.6263 32.5454 91.2994 C 0.0 **** 0.0
4043 C 31.3956 31.9699 90.8613 C 0.0 **** 0.0
4044 C 31.0882 30.6287 91.2346 C 0.0 **** 0.0
4045 C 29.98 29.9813 90.6097 C 0.0 **** 0.0
4046 C 29.2627 30.6153 89.5845 C 0.0 **** 0.0
4047 C 29.4428 31.9802 89.3741 C 0.0 **** 0.0
4048 C 30.3726 32.684 90.178 C 0.0 **** 0.0
4049 C 28.4682 32.7702 88.4842 C 0.0 **** 0.0
4050 C 27.626 31.8914 87.5297 C 0.0 **** 0.0
4051 C 27.2737 30.5315 88.0583 C 0.0 **** 0.0
4052 C 28.2616 29.8375 88.8187 C 0.0 **** 0.0
4053 C 28.0625 31.7818 86.0718 C 0.0 **** 0.0
4054 C 28.8478 33.0114 85.5272 C 0.0 **** 0.0
4055 C 28.5319 34.2113 86.2983 C 0.0 **** 0.0
4056 C 29.0632 34.0512 87.7827 C 0.0 **** 0.0
4057 C 28.1894 28.3989 88.7776 C 0.0 **** 0.0
4058 C 27.0892 27.7196 88.1829 C 0.0 **** 0.0
4059 C 25.9905 28.4235 87.6822 C 0.0 **** 0.0
4060 C 26.1131 29.8177 87.6042 C 0.0 **** 0.0
4061 C 24.7892 27.6904 87.1833 C 0.0 **** 0.0
4062 C 24.7017 26.204 87.2347 C 0.0 **** 0.0
4063 C 25.8099 25.5032 87.7976 C 0.0 **** 0.0
4064 C 27.0396 26.2164 88.2024 C 0.0 **** 0.0
4065 C 25.6148 24.052 88.2638 C 0.0 **** 0.0
4066 C 24.7181 23.3519 87.2835 C 0.0 **** 0.0
4067 C 23.4257 24.1076 86.9834 C 0.0 **** 0.0
4068 C 23.4971 25.5106 86.8978 C 0.0 **** 0.0
4069 N 22.3695 26.2262 86.5625 N 0.0 **** 0.0
4070 C 21.1812 25.6208 86.2937 C 0.0 **** 0.0
4071 C 21.1075 24.1983 86.3418 C 0.0 **** 0.0
4072 C 22.1878 23.4237 86.7877 C 0.0 **** 0.0
4073 C 22.1169 21.9184 87.012 C 0.0 **** 0.0
4074 C 20.7072 21.3478 86.8525 C 0.0 **** 0.0
4075 C 19.9131 22.0388 85.7355 C 0.0 **** 0.0
4076 C 19.7594 23.5233 86.1616 C 0.0 **** 0.0
4077 C 18.938 24.2532 85.1613 C 0.0 **** 0.0
4078 C 18.8454 25.7407 85.4812 C 0.0 **** 0.0
4079 C 20.002 26.3781 86.0189 C 0.0 **** 0.0
4080 C 19.9677 27.7682 86.3445 C 0.0 **** 0.0
4081 C 18.7633 28.4468 86.3228 C 0.0 **** 0.0
4082 C 17.6001 27.8465 85.8922 C 0.0 **** 0.0
4083 C 17.6494 26.5182 85.3552 C 0.0 **** 0.0
4084 C 31.4494 25.2196 96.3978 C 0.0 **** 0.0
4085 C 31.1607 23.9307 95.6264 C 0.0 **** 0.0
4086 C 34.3753 25.6585 96.4761 C 0.0 **** 0.0
4087 C 29.8055 27.0156 94.7199 C 0.0 **** 0.0
4088 C 35.3401 28.3005 95.7906 C 0.0 **** 0.0
4089 C 34.6417 32.5863 92.7446 C 0.0 **** 0.0
4090 C 33.1876 33.8184 90.6058 C 0.0 **** 0.0
4091 O 30.2273 34.0722 90.3723 O 0.0 **** 0.0
4092 C 27.0472 34.6445 86.2464 C 0.0 **** 0.0
4093 C 28.7032 33.1133 84.0146 C 0.0 **** 0.0
4094 O 25.1572 30.5427 86.8742 O 0.0 **** 0.0
4095 O 29.3424 27.7339 89.1609 O 0.0 **** 0.0
4096 O 27.9981 25.6252 88.7011 O 0.0 **** 0.0
4097 O 23.8783 28.316 86.7183 O 0.0 **** 0.0
4098 C 16.4951 26.062 84.536 C 0.0 **** 0.0
4099 C 16.2887 28.6765 85.8824 C 0.0 **** 0.0
4100 H 31.0885 28.0087 92.2392 H 0.0 **** 0.0
4101 H 30.1797 29.1866 93.3487 H 0.0 **** 0.0
4102 H 34.0089 30.6239 94.7862 H 0.0 **** 0.0
4103 H 34.7425 29.6552 93.4344 H 0.0 **** 0.0
4104 H 29.6609 29.0375 90.9507 H 0.0 **** 0.0
4105 H 28.6615 30.8662 85.9329 H 0.0 **** 0.0
4106 H 27.1027 31.6636 85.5161 H 0.0 **** 0.0
4107 H 29.9519 32.8463 85.6046 H 0.0 **** 0.0
4108 H 29.1444 35.0615 85.8852 H 0.0 **** 0.0
4109 H 28.8019 34.9122 88.4154 H 0.0 **** 0.0
4110 H 30.1775 33.9417 87.7363 H 0.0 **** 0.0
4111 H 26.6241 23.5125 88.3888 H 0.0 **** 0.0
4112 H 25.1027 24.0688 89.2626 H 0.0 **** 0.0
4113 H 24.5958 22.3183 87.6216 H 0.0 **** 0.0
4114 H 25.2905 23.244 86.3461 H 0.0 **** 0.0
4115 H 22.825 21.3818 86.3043 H 0.0 **** 0.0
4116 H 22.4871 21.7219 88.0546 H 0.0 **** 0.0
4117 H 20.131 21.3674 87.8373 H 0.0 **** 0.0
4118 H 20.7281 20.2382 86.6374 H 0.0 **** 0.0
4119 H 18.8985 21.5542 85.7034 H 0.0 **** 0.0
4120 H 20.4123 21.9041 84.7792 H 0.0 **** 0.0
4121 H 19.22 23.5421 87.0984 H 0.0 **** 0.0
4122 H 19.5166 24.1941 84.2318 H 0.0 **** 0.0
4123 H 17.9713 23.7282 84.9039 H 0.0 **** 0.0
4124 H 20.8159 28.2796 86.7533 H 0.0 **** 0.0
4125 H 18.7452 29.3982 86.8499 H 0.0 **** 0.0
4126 H 30.6184 25.6478 97.0054 H 0.0 **** 0.0
4127 H 32.1422 24.9795 97.2153 H 0.0 **** 0.0
4128 H 30.4339 24.1048 94.8137 H 0.0 **** 0.0
4129 H 30.7234 23.2521 96.4006 H 0.0 **** 0.0
4130 H 32.1104 23.5206 95.2546 H 0.0 **** 0.0
4131 H 35.3755 25.7728 96.1802 H 0.0 **** 0.0
4132 H 34.0897 24.6273 96.1421 H 0.0 **** 0.0
4133 H 34.2992 25.795 97.5653 H 0.0 **** 0.0
4134 H 29.4396 26.7363 93.6856 H 0.0 **** 0.0
4135 H 29.3478 27.9557 95.0702 H 0.0 **** 0.0
4136 H 29.4343 26.116 95.3037 H 0.0 **** 0.0
4137 H 36.0628 27.9954 95.0109 H 0.0 **** 0.0
4138 H 35.7096 27.8775 96.7707 H 0.0 **** 0.0
4139 H 35.521 29.3839 95.9813 H 0.0 **** 0.0
4140 H 35.1755 32.0425 93.5326 H 0.0 **** 0.0
4141 H 34.3298 33.5788 93.1243 H 0.0 **** 0.0
4142 H 35.4142 32.7705 91.9973 H 0.0 **** 0.0
4143 H 32.5543 34.1826 89.783 H 0.0 **** 0.0
4144 H 34.1153 33.5769 90.0022 H 0.0 **** 0.0
4145 H 33.4291 34.6432 91.3488 H 0.0 **** 0.0
4146 H 30.7655 34.4704 91.1448 H 0.0 **** 0.0
4147 H 26.7777 35.0212 85.2706 H 0.0 **** 0.0
4148 H 26.8694 35.4996 86.9569 H 0.0 **** 0.0
4149 H 26.3191 33.8893 86.6292 H 0.0 **** 0.0
4150 H 28.9987 32.1868 83.4632 H 0.0 **** 0.0
4151 H 29.3906 33.8639 83.6191 H 0.0 **** 0.0
4152 H 27.6625 33.4445 83.692 H 0.0 **** 0.0
4153 H 25.2308 31.5614 86.8829 H 0.0 **** 0.0
4154 H 29.7434 27.2249 88.4183 H 0.0 **** 0.0
4155 H 16.7786 25.1878 83.9052 H 0.0 **** 0.0
4156 H 16.1932 26.8408 83.8468 H 0.0 **** 0.0
4157 H 15.661 25.7628 85.1585 H 0.0 **** 0.0
4158 H 15.8879 28.9226 84.8751 H 0.0 **** 0.0
4159 H 16.374 29.6684 86.3639 H 0.0 **** 0.0
4160 H 15.5259 28.1534 86.4498 H 0.0 **** 0.0
4161 C 77.469 6.12847 35.1327 C 0.0 **** 0.0
4162 C 76.2203 6.79605 35.3705 C 0.0 **** 0.0
4163 C 75.6702 6.74924 36.7061 C 0.0 **** 0.0
4164 C 76.412 6.17464 37.7201 C 0.0 **** 0.0
4165 C 77.5139 5.37996 37.417 C 0.0 **** 0.0
4166 C 78.0023 5.27042 36.0971 C 0.0 **** 0.0
4167 C 75.9472 6.33455 39.1479 C 0.0 **** 0.0
4168 C 74.8395 7.23766 39.475 C 0.0 **** 0.0
4169 C 74.0434 7.70415 38.4171 C 0.0 **** 0.0
4170 C 74.2023 7.08714 37.0241 C 0.0 **** 0.0
4171 C 73.0402 8.7125 38.6917 C 0.0 **** 0.0
4172 C 72.9289 9.27173 40.0175 C 0.0 **** 0.0
4173 C 73.8202 8.85123 41.0799 C 0.0 **** 0.0
4174 C 74.7217 7.77052 40.8304 C 0.0 **** 0.0
4175 C 75.6166 7.35838 41.8207 C 0.0 **** 0.0
4176 C 75.7919 8.09973 43.0331 C 0.0 **** 0.0
4177 C 74.773 9.05833 43.3786 C 0.0 **** 0.0
4178 C 73.9722 9.57789 42.2937 C 0.0 **** 0.0
4179 C 74.657 9.61164 44.7884 C 0.0 **** 0.0
4180 C 75.3623 8.69764 45.7846 C 0.0 **** 0.0
4181 C 76.6901 8.21805 45.3401 C 0.0 **** 0.0
4182 C 76.8496 7.85948 43.9481 C 0.0 **** 0.0
4183 C 74.4706 7.67497 46.5235 C 0.0 **** 0.0
4184 C 73.1984 7.33585 45.7104 C 0.0 **** 0.0
4185 C 72.339 8.50571 45.3705 C 0.0 **** 0.0
4186 C 73.1805 9.81291 45.3295 C 0.0 **** 0.0
4187 C 78.1165 7.3404 43.5317 C 0.0 **** 0.0
4188 C 79.154 7.0235 44.5255 C 0.0 **** 0.0
4189 C 78.9167 7.35172 45.8768 C 0.0 **** 0.0
4190 C 77.7163 7.95656 46.2878 C 0.0 **** 0.0
4191 C 79.9068 6.90958 46.9581 C 0.0 **** 0.0
4192 C 81.034 5.97565 46.5603 C 0.0 **** 0.0
4193 C 81.2522 5.70776 45.2123 C 0.0 **** 0.0
4194 C 80.3809 6.31529 44.1498 C 0.0 **** 0.0
4195 C 82.1297 4.58601 44.7565 C 0.0 **** 0.0
4196 C 83.4021 4.62013 45.6233 C 0.0 **** 0.0
4197 C 83.0912 4.72082 47.1279 C 0.0 **** 0.0
4198 C 81.9531 5.47734 47.5203 C 0.0 **** 0.0
4199 N 81.729 5.75474 48.8286 N 0.0 **** 0.0
4200 C 82.5431 5.32957 49.8149 C 0.0 **** 0.0
4201 C 83.6089 4.46361 49.5043 C 0.0 **** 0.0
4202 C 83.8826 4.14923 48.1495 C 0.0 **** 0.0
4203 C 84.8612 3.02115 47.8249 C 0.0 **** 0.0
4204 C 85.7426 2.54644 48.9837 C 0.0 **** 0.0
4205 C 85.0583 2.56071 50.3476 C 0.0 **** 0.0
4206 C 84.5303 3.98326 50.6298 C 0.0 **** 0.0
4207 C 83.8145 4.07902 51.9696 C 0.0 **** 0.0
4208 C 83.0535 5.33804 52.1984 C 0.0 **** 0.0
4209 C 82.298 5.84206 51.1064 C 0.0 **** 0.0
4210 C 81.4087 6.96326 51.293 C 0.0 **** 0.0
4211 C 81.3566 7.60184 52.5481 C 0.0 **** 0.0
4212 C 82.0463 7.08653 53.6248 C 0.0 **** 0.0
4213 C 82.9381 5.96223 53.4676 C 0.0 **** 0.0
4214 C 78.9758 4.13526 35.6604 C 0.0 **** 0.0
4215 C 78.2918 3.13036 34.7268 C 0.0 **** 0.0
4216 C 78.1425 6.33402 33.8013 C 0.0 **** 0.0
4217 C 78.1855 4.63349 38.524 C 0.0 **** 0.0
4218 C 75.309 7.3063 34.2499 C 0.0 **** 0.0
4219 C 72.2706 9.31198 37.5021 C 0.0 **** 0.0
4220 C 71.819 10.2778 40.3951 C 0.0 **** 0.0
4221 O 73.5107 10.9101 42.3402 O 0.0 **** 0.0
4222 C 71.1214 8.71777 46.2749 C 0.0 **** 0.0
4223 C 72.4823 6.12444 46.3039 C 0.0 **** 0.0
4224 O 77.5747 8.329 47.6447 O 0.0 **** 0.0
4225 O 78.3589 7.2488 42.1268 O 0.0 **** 0.0
4226 O 80.8546 6.54888 43.0774 O 0.0 **** 0.0
4227 O 79.7631 7.29006 48.1121 O 0.0 **** 0.0
4228 C 83.666 5.39416 54.6311 C 0.0 **** 0.0
4229 C 81.9171 7.86068 54.9562 C 0.0 **** 0.0
4230 H 75.7842 5.3407 39.5576 H 0.0 **** 0.0
4231 H 76.8244 6.80914 39.6413 H 0.0 **** 0.0
4232 H 73.7505 7.66901 36.211 H 0.0 **** 0.0
4233 H 73.654 6.09421 36.9883 H 0.0 **** 0.0
4234 H 76.1128 6.38919 41.802 H 0.0 **** 0.0
4235 H 75.0617 6.81147 46.7386 H 0.0 **** 0.0
4236 H 74.1989 8.11663 47.4871 H 0.0 **** 0.0
4237 H 73.5719 6.93383 44.7411 H 0.0 **** 0.0
4238 H 71.9126 8.31096 44.3653 H 0.0 **** 0.0
4239 H 73.2614 10.2841 46.3617 H 0.0 **** 0.0
4240 H 72.6622 10.5728 44.6604 H 0.0 **** 0.0
4241 H 81.5871 3.6473 44.8517 H 0.0 **** 0.0
4242 H 82.3763 4.6814 43.6834 H 0.0 **** 0.0
4243 H 84.0149 5.49812 45.3755 H 0.0 **** 0.0
4244 H 84.0016 3.70836 45.3837 H 0.0 **** 0.0
4245 H 84.2915 2.18508 47.4253 H 0.0 **** 0.0
4246 H 85.499 3.4249 47.0168 H 0.0 **** 0.0
4247 H 86.6642 3.16279 49.0246 H 0.0 **** 0.0
4248 H 86.0602 1.51559 48.6936 H 0.0 **** 0.0
4249 H 85.8245 2.369 51.1174 H 0.0 **** 0.0
4250 H 84.2495 1.7595 50.4412 H 0.0 **** 0.0
4251 H 85.4435 4.62706 50.6755 H 0.0 **** 0.0
4252 H 83.06 3.22453 51.9776 H 0.0 **** 0.0
4253 H 84.5447 3.87539 52.7846 H 0.0 **** 0.0
4254 H 80.7658 7.33721 50.5128 H 0.0 **** 0.0
4255 H 80.6954 8.43247 52.6425 H 0.0 **** 0.0
4256 H 79.3414 3.54511 36.5313 H 0.0 **** 0.0
4257 H 79.9217 4.50345 35.1586 H 0.0 **** 0.0
4258 H 78.43 3.40806 33.6682 H 0.0 **** 0.0
4259 H 77.1814 3.06451 34.8861 H 0.0 **** 0.0
4260 H 78.6769 2.08544 34.8779 H 0.0 **** 0.0
4261 H 78.2532 7.43135 33.4717 H 0.0 **** 0.0
4262 H 77.5654 5.83141 33.0003 H 0.0 **** 0.0
4263 H 79.1702 5.97822 33.7603 H 0.0 **** 0.0
4264 H 77.9152 4.94883 39.4969 H 0.0 **** 0.0
4265 H 79.3055 4.7135 38.4854 H 0.0 **** 0.0
4266 H 77.8202 3.61679 38.4854 H 0.0 **** 0.0
4267 H 75.094 8.39422 34.3095 H 0.0 **** 0.0
4268 H 74.4206 6.70026 34.2063 H 0.0 **** 0.0
4269 H 75.8072 7.13853 33.2543 H 0.0 **** 0.0
4270 H 71.568 10.117 37.7797 H 0.0 **** 0.0
4271 H 71.7237 8.49651 36.9432 H 0.0 **** 0.0
4272 H 73.0699 9.84122 36.8624 H 0.0 **** 0.0
4273 H 71.4505 10.1451 41.4608 H 0.0 **** 0.0
4274 H 70.9374 10.2402 39.7467 H 0.0 **** 0.0
4275 H 72.1812 11.3174 40.2402 H 0.0 **** 0.0
4276 H 73.9912 11.4487 43.0503 H 0.0 **** 0.0
4277 H 70.3956 7.94399 46.0792 H 0.0 **** 0.0
4278 H 70.607 9.64706 46.0729 H 0.0 **** 0.0
4279 H 71.384 8.69212 47.3489 H 0.0 **** 0.0
4280 H 73.1152 5.22742 46.3822 H 0.0 **** 0.0
4281 H 71.6729 5.78348 45.646 H 0.0 **** 0.0
4282 H 72.1045 6.39942 47.2483 H 0.0 **** 0.0
4283 H 76.6172 8.63073 47.9004 H 0.0 **** 0.0
4284 H 78.9069 6.47583 41.7942 H 0.0 **** 0.0
4285 H 83.1892 4.49586 55.0929 H 0.0 **** 0.0
4286 H 83.7079 6.14836 55.4387 H 0.0 **** 0.0
4287 H 84.7401 5.16596 54.4177 H 0.0 **** 0.0
4288 H 81.6099 7.18787 55.7519 H 0.0 **** 0.0
4289 H 81.2226 8.69674 54.8934 H 0.0 **** 0.0
4290 H 82.8904 8.29014 55.1906 H 0.0 **** 0.0
4291 C 85.1872 53.174 31.3052 C 0.0 **** 0.0
4292 C 86.5574 52.8431 31.4787 C 0.0 **** 0.0
4293 C 86.923 51.6192 32.091 C 0.0 **** 0.0
4294 C 85.9483 50.8538 32.7144 C 0.0 **** 0.0
4295 C 84.5732 51.1565 32.5058 C 0.0 **** 0.0
4296 C 84.1801 52.2512 31.6901 C 0.0 **** 0.0
4297 C 86.3234 49.6252 33.5615 C 0.0 **** 0.0
4298 C 87.7829 49.2103 33.592 C 0.0 **** 0.0
4299 C 88.7461 49.9686 32.9468 C 0.0 **** 0.0
4300 C 88.3953 51.2113 32.1538 C 0.0 **** 0.0
4301 C 90.1227 49.5369 32.9154 C 0.0 **** 0.0
4302 C 90.502 48.3621 33.5579 C 0.0 **** 0.0
4303 C 89.5049 47.5087 34.1061 C 0.0 **** 0.0
4304 C 88.1339 47.9583 34.134 C 0.0 **** 0.0
4305 C 87.166 47.1686 34.768 C 0.0 **** 0.0
4306 C 87.407 45.892 35.2004 C 0.0 **** 0.0
4307 C 88.7551 45.529 35.3552 C 0.0 **** 0.0
4308 C 89.7693 46.2314 34.6356 C 0.0 **** 0.0
4309 C 89.1719 44.5178 36.4068 C 0.0 **** 0.0
4310 C 88.0258 44.1547 37.3407 C 0.0 **** 0.0
4311 C 86.7006 44.0672 36.6538 C 0.0 **** 0.0
4312 C 86.372 45.0605 35.7298 C 0.0 **** 0.0
4313 C 87.9487 44.9989 38.666 C 0.0 **** 0.0
4314 C 88.6887 46.3715 38.6086 C 0.0 **** 0.0
4315 C 90.0747 46.3132 38.0549 C 0.0 **** 0.0
4316 C 90.3341 45.0092 37.2827 C 0.0 **** 0.0
4317 C 85.0044 45.1 35.2539 C 0.0 **** 0.0
4318 C 84.0375 44.2135 35.8355 C 0.0 **** 0.0
4319 C 84.4343 43.1374 36.6063 C 0.0 **** 0.0
4320 C 85.8079 43.0071 36.9772 C 0.0 **** 0.0
4321 C 83.3866 42.178 37.1992 C 0.0 **** 0.0
4322 C 81.9529 42.4774 37.0974 C 0.0 **** 0.0
4323 C 81.5664 43.6373 36.3576 C 0.0 **** 0.0
4324 C 82.5605 44.4899 35.7071 C 0.0 **** 0.0
4325 C 80.1263 43.9673 36.1698 C 0.0 **** 0.0
4326 C 79.3298 43.6578 37.421 C 0.0 **** 0.0
4327 C 79.6822 42.2376 38.0217 C 0.0 **** 0.0
4328 C 80.9617 41.6991 37.8047 C 0.0 **** 0.0
4329 N 81.2643 40.4734 38.2819 N 0.0 **** 0.0
4330 C 80.3721 39.6972 39.0188 C 0.0 **** 0.0
4331 C 79.0708 40.2059 39.2296 C 0.0 **** 0.0
4332 C 78.6626 41.4459 38.6855 C 0.0 **** 0.0
4333 C 77.3324 42.0543 39.0957 C 0.0 **** 0.0
4334 C 76.2589 41.0644 39.6231 C 0.0 **** 0.0
4335 C 76.901 40.0903 40.5983 C 0.0 **** 0.0
4336 C 78.0069 39.3167 39.881 C 0.0 **** 0.0
4337 C 78.7005 38.4633 40.937 C 0.0 **** 0.0
4338 C 79.8755 37.7247 40.3934 C 0.0 **** 0.0
4339 C 80.7455 38.4377 39.5765 C 0.0 **** 0.0
4340 C 81.9623 37.8374 39.2829 C 0.0 **** 0.0
4341 C 82.2662 36.5662 39.7071 C 0.0 **** 0.0
4342 C 81.4086 35.8035 40.4647 C 0.0 **** 0.0
4343 C 80.1596 36.3852 40.8295 C 0.0 **** 0.0
4344 C 82.7595 52.2945 31.0471 C 0.0 **** 0.0
4345 C 81.7202 53.007 31.9273 C 0.0 **** 0.0
4346 C 84.8071 54.5076 30.639 C 0.0 **** 0.0
4347 C 83.4765 50.184 33.0219 C 0.0 **** 0.0
4348 C 87.598 53.85 31.022 C 0.0 **** 0.0
4349 C 91.077 50.3147 32.0353 C 0.0 **** 0.0
4350 C 92.0121 48.0054 33.7503 C 0.0 **** 0.0
4351 O 90.8497 45.4963 34.1191 O 0.0 **** 0.0
4352 C 91.2294 46.6129 39.0731 C 0.0 **** 0.0
4353 C 88.5125 47.0946 39.9145 C 0.0 **** 0.0
4354 O 86.1818 42.0558 37.9505 O 0.0 **** 0.0
4355 O 84.6698 45.8505 34.1164 O 0.0 **** 0.0
4356 O 82.1642 45.5082 35.1614 O 0.0 **** 0.0
4357 O 83.6873 41.1938 37.85 O 0.0 **** 0.0
4358 C 79.1769 35.6282 41.6684 C 0.0 **** 0.0
4359 C 81.8893 34.4402 40.8668 C 0.0 **** 0.0
4360 H 85.9941 49.811 34.5676 H 0.0 **** 0.0
4361 H 85.7442 48.7786 33.15 H 0.0 **** 0.0
4362 H 88.7858 51.1242 31.1057 H 0.0 **** 0.0
4363 H 88.9237 52.0179 32.7005 H 0.0 **** 0.0
4364 H 86.1861 47.5013 34.8982 H 0.0 **** 0.0
4365 H 86.8555 45.1876 38.8465 H 0.0 **** 0.0
4366 H 88.402 44.4029 39.4697 H 0.0 **** 0.0
4367 H 88.1026 46.9797 37.8965 H 0.0 **** 0.0
4368 H 90.2084 47.1648 37.337 H 0.0 **** 0.0
4369 H 90.5414 44.1992 38.0093 H 0.0 **** 0.0
4370 H 91.2308 45.0841 36.6637 H 0.0 **** 0.0
4371 H 79.9207 45.0682 35.9294 H 0.0 **** 0.0
4372 H 79.7243 43.3852 35.2956 H 0.0 **** 0.0
4373 H 78.3142 43.6707 37.074 H 0.0 **** 0.0
4374 H 79.4184 44.4433 38.2106 H 0.0 **** 0.0
4375 H 77.5333 42.8764 39.7998 H 0.0 **** 0.0
4376 H 76.8245 42.586 38.2505 H 0.0 **** 0.0
4377 H 75.6736 40.577 38.7927 H 0.0 **** 0.0
4378 H 75.5444 41.6248 40.2827 H 0.0 **** 0.0
4379 H 76.0917 39.3514 40.9377 H 0.0 **** 0.0
4380 H 77.3865 40.7213 41.4066 H 0.0 **** 0.0
4381 H 77.5405 38.654 39.0796 H 0.0 **** 0.0
4382 H 79.1224 39.1191 41.7691 H 0.0 **** 0.0
4383 H 77.9482 37.7448 41.2958 H 0.0 **** 0.0
4384 H 82.65 38.3339 38.5876 H 0.0 **** 0.0
4385 H 83.1709 36.1282 39.3455 H 0.0 **** 0.0
4386 H 82.4473 51.241 30.8662 H 0.0 **** 0.0
4387 H 82.8061 52.7331 30.0616 H 0.0 **** 0.0
4388 H 81.541 54.0333 31.5777 H 0.0 **** 0.0
4389 H 82.0341 53.0691 32.9971 H 0.0 **** 0.0
4390 H 80.7962 52.4802 31.934 H 0.0 **** 0.0
4391 H 85.2156 55.3464 31.2263 H 0.0 **** 0.0
4392 H 83.7071 54.6952 30.6973 H 0.0 **** 0.0
4393 H 85.171 54.5502 29.5815 H 0.0 **** 0.0
4394 H 83.7328 49.7503 34.0202 H 0.0 **** 0.0
4395 H 83.2463 49.3259 32.343 H 0.0 **** 0.0
4396 H 82.5292 50.7874 33.2 H 0.0 **** 0.0
4397 H 88.6629 53.5379 31.0516 H 0.0 **** 0.0
4398 H 87.5402 54.8132 31.621 H 0.0 **** 0.0
4399 H 87.3243 54.0788 29.9851 H 0.0 **** 0.0
4400 H 92.0887 49.8968 32.0434 H 0.0 **** 0.0
4401 H 91.1539 51.3941 32.3372 H 0.0 **** 0.0
4402 H 90.77 50.2542 31.0046 H 0.0 **** 0.0
4403 H 92.157 47.6092 34.7824 H 0.0 **** 0.0
4404 H 92.7237 48.9032 33.758 H 0.0 **** 0.0
4405 H 92.3796 47.2327 33.0625 H 0.0 **** 0.0
4406 H 90.9375 44.561 34.5116 H 0.0 **** 0.0
4407 H 91.2689 47.6742 39.3073 H 0.0 **** 0.0
4408 H 92.2221 46.2548 38.6775 H 0.0 **** 0.0
4409 H 91.0512 46.0865 40.0051 H 0.0 **** 0.0
4410 H 87.4146 47.157 40.2228 H 0.0 **** 0.0
4411 H 88.8449 48.1693 39.83 H 0.0 **** 0.0
4412 H 89.0307 46.629 40.7368 H 0.0 **** 0.0
4413 H 87.0688 42.2027 38.4102 H 0.0 **** 0.0
4414 H 83.8568 45.5377 33.6057 H 0.0 **** 0.0
4415 H 78.8137 36.2586 42.542 H 0.0 **** 0.0
4416 H 79.5919 34.6709 42.0458 H 0.0 **** 0.0
4417 H 78.2933 35.4286 41.0549 H 0.0 **** 0.0
4418 H 81.7717 34.2357 41.9451 H 0.0 **** 0.0
4419 H 82.9283 34.2442 40.495 H 0.0 **** 0.0
4420 H 81.2342 33.6972 40.3337 H 0.0 **** 0.0
4421 C 46.7034 74.8183 16.8917 C 0.0 **** 0.0
4422 C 47.0389 75.7586 17.8926 C 0.0 **** 0.0
4423 C 47.1861 75.3072 19.2349 C 0.0 **** 0.0
4424 C 47.3095 73.9191 19.5167 C 0.0 **** 0.0
4425 C 47.135 72.9562 18.4491 C 0.0 **** 0.0
4426 C 46.7813 73.4203 17.1421 C 0.0 **** 0.0
4427 C 47.585 73.4663 20.8948 C 0.0 **** 0.0
4428 C 47.5998 74.4653 21.9998 C 0.0 **** 0.0
4429 C 47.4555 75.8623 21.7529 C 0.0 **** 0.0
4430 C 47.2593 76.3629 20.3707 C 0.0 **** 0.0
4431 C 47.374 76.7751 22.8391 C 0.0 **** 0.0
4432 C 47.1388 76.2769 24.1497 C 0.0 **** 0.0
4433 C 47.3375 74.8501 24.4081 C 0.0 **** 0.0
4434 C 47.6415 73.9929 23.3376 C 0.0 **** 0.0
4435 C 47.9023 72.6263 23.6092 C 0.0 **** 0.0
4436 C 47.7206 72.0578 24.9077 C 0.0 **** 0.0
4437 C 47.1273 72.8583 25.9115 C 0.0 **** 0.0
4438 C 47.2538 74.2881 25.7229 C 0.0 **** 0.0
4439 C 46.5159 72.2038 27.135 C 0.0 **** 0.0
4440 C 46.3253 70.6851 26.9589 C 0.0 **** 0.0
4441 C 47.4572 70.0343 26.3004 C 0.0 **** 0.0
4442 C 48.0937 70.6901 25.2309 C 0.0 **** 0.0
4443 C 45.0066 70.2805 26.2604 C 0.0 **** 0.0
4444 C 44.2444 71.4963 25.6642 C 0.0 **** 0.0
4445 C 44.0166 72.5507 26.6938 C 0.0 **** 0.0
4446 C 45.2333 72.7976 27.681 C 0.0 **** 0.0
4447 C 49.1318 69.9977 24.5861 C 0.0 **** 0.0
4448 C 49.3122 68.6058 24.8016 C 0.0 **** 0.0
4449 C 48.7012 67.9654 25.9421 C 0.0 **** 0.0
4450 C 47.7775 68.7439 26.7026 C 0.0 **** 0.0
4451 C 49.0168 66.4943 26.2004 C 0.0 **** 0.0
4452 C 50.1883 65.8797 25.4628 C 0.0 **** 0.0
4453 C 50.5506 66.4701 24.2344 C 0.0 **** 0.0
4454 C 49.9641 67.7495 23.8253 C 0.0 **** 0.0
4455 C 51.6377 65.9351 23.3978 C 0.0 **** 0.0
4456 C 51.9708 64.4789 23.6827 C 0.0 **** 0.0
4457 C 51.8597 64.1728 25.2152 C 0.0 **** 0.0
4458 C 50.8944 64.8015 25.999 C 0.0 **** 0.0
4459 N 50.7195 64.4209 27.3021 N 0.0 **** 0.0
4460 C 51.4058 63.4123 27.9021 C 0.0 **** 0.0
4461 C 52.3689 62.7135 27.1334 C 0.0 **** 0.0
4462 C 52.5572 63.0499 25.752 C 0.0 **** 0.0
4463 C 53.4993 62.2292 24.8735 C 0.0 **** 0.0
4464 C 54.6366 61.6405 25.6835 C 0.0 **** 0.0
4465 C 54.0701 60.8756 26.8602 C 0.0 **** 0.0
4466 C 53.3097 61.7728 27.8576 C 0.0 **** 0.0
4467 C 52.5191 60.953 28.8927 C 0.0 **** 0.0
4468 C 51.6925 61.8306 29.8223 C 0.0 **** 0.0
4469 C 51.1459 63.0345 29.2705 C 0.0 **** 0.0
4470 C 50.3779 63.8215 30.1276 C 0.0 **** 0.0
4471 C 50.0845 63.4298 31.415 C 0.0 **** 0.0
4472 C 50.6578 62.2778 31.9902 C 0.0 **** 0.0
4473 C 51.5373 61.5234 31.1974 C 0.0 **** 0.0
4474 C 46.5957 72.4349 16.0074 C 0.0 **** 0.0
4475 C 45.1507 71.9332 15.8805 C 0.0 **** 0.0
4476 C 46.2425 75.288 15.5082 C 0.0 **** 0.0
4477 C 47.5163 71.4907 18.6383 C 0.0 **** 0.0
4478 C 47.0046 77.278 17.5626 C 0.0 **** 0.0
4479 C 47.5268 78.2551 22.6032 C 0.0 **** 0.0
4480 C 46.5451 77.2107 25.1882 C 0.0 **** 0.0
4481 O 47.3077 75.0976 26.8636 O 0.0 **** 0.0
4482 C 42.7541 72.3918 27.5414 C 0.0 **** 0.0
4483 C 42.9669 70.9601 24.9593 C 0.0 **** 0.0
4484 O 47.2682 68.2801 27.9363 O 0.0 **** 0.0
4485 O 49.9988 70.7724 23.7501 O 0.0 **** 0.0
4486 O 49.9859 68.0925 22.6314 O 0.0 **** 0.0
4487 O 48.3379 65.8244 26.9696 O 0.0 **** 0.0
4488 C 52.3727 60.44 31.8692 C 0.0 **** 0.0
4489 C 50.4056 61.9862 33.4133 C 0.0 **** 0.0
4490 H 46.7754 72.761 21.197 H 0.0 **** 0.0
4491 H 48.5843 72.9225 20.9112 H 0.0 **** 0.0
4492 H 48.1497 76.9934 20.1259 H 0.0 **** 0.0
4493 H 46.343 76.972 20.367 H 0.0 **** 0.0
4494 H 48.0113 71.9072 22.7892 H 0.0 **** 0.0
4495 H 45.2198 69.5193 25.5002 H 0.0 **** 0.0
4496 H 44.3684 69.8033 27.0377 H 0.0 **** 0.0
4497 H 44.8816 71.9011 24.8314 H 0.0 **** 0.0
4498 H 43.8804 73.4977 26.1161 H 0.0 **** 0.0
4499 H 45.0313 72.4116 28.7012 H 0.0 **** 0.0
4500 H 45.3658 73.8997 27.8399 H 0.0 **** 0.0
4501 H 51.3667 66.0502 22.336 H 0.0 **** 0.0
4502 H 52.5258 66.5156 23.6019 H 0.0 **** 0.0
4503 H 53.0358 64.426 23.413 H 0.0 **** 0.0
4504 H 51.3458 63.8653 23.019 H 0.0 **** 0.0
4505 H 52.9614 61.4782 24.2984 H 0.0 **** 0.0
4506 H 54.0324 62.923 24.2335 H 0.0 **** 0.0
4507 H 55.3127 62.437 26.0322 H 0.0 **** 0.0
4508 H 55.2413 60.9701 25.0811 H 0.0 **** 0.0
4509 H 54.9321 60.4157 27.4042 H 0.0 **** 0.0
4510 H 53.3926 60.0822 26.4729 H 0.0 **** 0.0
4511 H 53.9994 62.4212 28.3979 H 0.0 **** 0.0
4512 H 51.8254 60.192 28.3901 H 0.0 **** 0.0
4513 H 53.2824 60.4095 29.4578 H 0.0 **** 0.0
4514 H 49.9821 64.7765 29.8338 H 0.0 **** 0.0
4515 H 49.4315 64.0939 31.987 H 0.0 **** 0.0
4516 H 47.3517 71.5995 16.1018 H 0.0 **** 0.0
4517 H 46.8586 72.8493 15.0462 H 0.0 **** 0.0
4518 H 45.2178 70.8787 15.5361 H 0.0 **** 0.0
4519 H 44.4687 72.3562 15.1202 H 0.0 **** 0.0
4520 H 44.6935 71.9232 16.8716 H 0.0 **** 0.0
4521 H 45.2549 74.8246 15.3079 H 0.0 **** 0.0
4522 H 47.0896 74.9779 14.8945 H 0.0 **** 0.0
4523 H 46.1484 76.3825 15.4272 H 0.0 **** 0.0
4524 H 47.6112 71.19 19.684 H 0.0 **** 0.0
4525 H 48.425 71.2443 18.0928 H 0.0 **** 0.0
4526 H 46.7751 70.869 18.1485 H 0.0 **** 0.0
4527 H 47.7026 77.5127 16.7199 H 0.0 **** 0.0
4528 H 47.2048 78.0225 18.3952 H 0.0 **** 0.0
4529 H 45.9629 77.4929 17.2399 H 0.0 **** 0.0
4530 H 48.2068 78.6829 23.3866 H 0.0 **** 0.0
4531 H 46.5599 78.7813 22.6804 H 0.0 **** 0.0
4532 H 47.916 78.5355 21.6166 H 0.0 **** 0.0
4533 H 45.894 76.7316 25.8634 H 0.0 **** 0.0
4534 H 45.9713 77.9807 24.6612 H 0.0 **** 0.0
4535 H 47.3913 77.7442 25.6612 H 0.0 **** 0.0
4536 H 47.5564 74.5722 27.7081 H 0.0 **** 0.0
4537 H 41.8036 72.491 26.918 H 0.0 **** 0.0
4538 H 42.7755 73.2471 28.2535 H 0.0 **** 0.0
4539 H 42.8544 71.4477 28.1373 H 0.0 **** 0.0
4540 H 43.1829 70.1622 24.2264 H 0.0 **** 0.0
4541 H 42.4753 71.7549 24.3936 H 0.0 **** 0.0
4542 H 42.2286 70.5139 25.6819 H 0.0 **** 0.0
4543 H 47.926 67.5991 28.3419 H 0.0 **** 0.0
4544 H 50.8331 70.2654 23.4762 H 0.0 **** 0.0
4545 H 52.317 59.5247 31.2928 H 0.0 **** 0.0
4546 H 52.0046 60.0735 32.8268 H 0.0 **** 0.0
4547 H 53.4287 60.7225 31.9118 H 0.0 **** 0.0
4548 H 49.952 60.9677 33.5289 H 0.0 **** 0.0
4549 H 49.7096 62.709 33.8447 H 0.0 **** 0.0
4550 H 51.3787 62.0604 33.9685 H 0.0 **** 0.0
4551 C 24.2444 66.6659 21.1504 C 0.0 **** 0.0
4552 C 24.7072 68.0217 21.1367 C 0.0 **** 0.0
4553 C 24.5217 68.8706 22.252 C 0.0 **** 0.0
4554 C 23.7667 68.4212 23.3529 C 0.0 **** 0.0
4555 C 23.4157 67.044 23.4539 C 0.0 **** 0.0
4556 C 23.7455 66.1425 22.3791 C 0.0 **** 0.0
4557 C 23.3766 69.4115 24.4705 C 0.0 **** 0.0
4558 C 23.8419 70.8235 24.4032 C 0.0 **** 0.0
4559 C 24.7009 71.2085 23.3421 C 0.0 **** 0.0
4560 C 25.1196 70.2571 22.2451 C 0.0 **** 0.0
4561 C 25.1865 72.5397 23.2622 C 0.0 **** 0.0
4562 C 24.6707 73.5207 24.1584 C 0.0 **** 0.0
4563 C 24.0995 73.09 25.3597 C 0.0 **** 0.0
4564 C 23.5691 71.7713 25.4309 C 0.0 **** 0.0
4565 C 22.762 71.3841 26.5323 C 0.0 **** 0.0
4566 C 22.4659 72.2965 27.5707 C 0.0 **** 0.0
4567 C 22.8496 73.6522 27.3972 C 0.0 **** 0.0
4568 C 23.8854 73.9407 26.428 C 0.0 **** 0.0
4569 C 22.2007 74.7748 28.2072 C 0.0 **** 0.0
4570 C 20.9371 74.2998 28.9329 C 0.0 **** 0.0
4571 C 21.161 72.9639 29.5606 C 0.0 **** 0.0
4572 C 21.7916 71.9236 28.7623 C 0.0 **** 0.0
4573 C 19.5675 74.427 28.2039 C 0.0 **** 0.0
4574 C 19.7889 74.4216 26.7095 C 0.0 **** 0.0
4575 C 20.5876 75.6252 26.3148 C 0.0 **** 0.0
4576 C 21.7483 75.9521 27.3232 C 0.0 **** 0.0
4577 C 21.7145 70.6158 29.3076 C 0.0 **** 0.0
4578 C 21.1666 70.3511 30.5865 C 0.0 **** 0.0
4579 C 20.6783 71.4187 31.3758 C 0.0 **** 0.0
4580 C 20.7495 72.7383 30.8721 C 0.0 **** 0.0
4581 C 20.1152 71.0854 32.753 C 0.0 **** 0.0
4582 C 20.0379 69.7329 33.2767 C 0.0 **** 0.0
4583 C 20.6555 68.7196 32.5331 C 0.0 **** 0.0
4584 C 21.2903 69.008 31.2251 C 0.0 **** 0.0
4585 C 20.7165 67.3577 33.1428 C 0.0 **** 0.0
4586 C 19.3585 67.0353 33.7913 C 0.0 **** 0.0
4587 C 19.0122 68.0855 34.8399 C 0.0 **** 0.0
4588 C 19.3031 69.3977 34.4854 C 0.0 **** 0.0
4589 N 18.7501 70.4152 35.2093 N 0.0 **** 0.0
4590 C 18.0263 70.1977 36.3383 C 0.0 **** 0.0
4591 C 17.8296 68.8886 36.7957 C 0.0 **** 0.0
4592 C 18.3559 67.8197 36.0742 C 0.0 **** 0.0
4593 C 18.0666 66.3911 36.4544 C 0.0 **** 0.0
4594 C 17.846 66.2979 37.988 C 0.0 **** 0.0
4595 C 16.663 67.2205 38.3072 C 0.0 **** 0.0
4596 C 17.0533 68.6851 38.0761 C 0.0 **** 0.0
4597 C 15.8831 69.6435 38.158 C 0.0 **** 0.0
4598 C 16.2072 71.0577 37.7214 C 0.0 **** 0.0
4599 C 17.3395 71.3215 36.9089 C 0.0 **** 0.0
4600 C 17.6743 72.6264 36.5505 C 0.0 **** 0.0
4601 C 16.9085 73.7108 36.9658 C 0.0 **** 0.0
4602 C 15.7252 73.4579 37.6858 C 0.0 **** 0.0
4603 C 15.3552 72.174 38.0947 C 0.0 **** 0.0
4604 C 23.8328 64.6783 22.705 C 0.0 **** 0.0
4605 C 22.605 63.8541 22.293 C 0.0 **** 0.0
4606 C 24.4108 65.7825 19.8699 C 0.0 **** 0.0
4607 C 22.4498 66.5992 24.5479 C 0.0 **** 0.0
4608 C 25.6537 68.4286 19.9954 C 0.0 **** 0.0
4609 C 26.2119 72.9748 22.1998 C 0.0 **** 0.0
4610 C 24.7782 75.0267 23.8394 C 0.0 **** 0.0
4611 O 24.7697 74.9884 26.6645 O 0.0 **** 0.0
4612 C 19.7162 76.8948 26.0701 C 0.0 **** 0.0
4613 C 18.5193 74.1563 25.861 C 0.0 **** 0.0
4614 O 20.3885 73.8135 31.759 O 0.0 **** 0.0
4615 O 22.1408 69.5255 28.5414 O 0.0 **** 0.0
4616 O 21.9496 68.1004 30.6536 O 0.0 **** 0.0
4617 O 19.7208 71.9815 33.4678 O 0.0 **** 0.0
4618 C 14.1016 71.9449 38.9472 C 0.0 **** 0.0
4619 C 14.8958 74.6736 38.0185 C 0.0 **** 0.0
4620 H 22.2864 69.4199 24.4515 H 0.0 **** 0.0
4621 H 23.7355 68.9847 25.4471 H 0.0 **** 0.0
4622 H 26.2277 70.1399 22.2822 H 0.0 **** 0.0
4623 H 24.8214 70.7351 21.2799 H 0.0 **** 0.0
4624 H 22.1868 70.4669 26.5123 H 0.0 **** 0.0
4625 H 18.8715 73.6216 28.4934 H 0.0 **** 0.0
4626 H 19.1041 75.3935 28.5363 H 0.0 **** 0.0
4627 H 20.439 73.5896 26.4898 H 0.0 **** 0.0
4628 H 21.0462 75.3229 25.349 H 0.0 **** 0.0
4629 H 21.2674 76.7443 27.9259 H 0.0 **** 0.0
4630 H 22.5991 76.4704 26.8015 H 0.0 **** 0.0
4631 H 20.8006 66.5939 32.4035 H 0.0 **** 0.0
4632 H 21.5506 67.2833 33.9064 H 0.0 **** 0.0
4633 H 19.4799 65.9918 34.1937 H 0.0 **** 0.0
4634 H 18.5401 67.0048 33.0063 H 0.0 **** 0.0
4635 H 17.2018 66.0184 35.8964 H 0.0 **** 0.0
4636 H 18.9457 65.7225 36.2218 H 0.0 **** 0.0
4637 H 18.7133 66.4994 38.6523 H 0.0 **** 0.0
4638 H 17.503 65.2367 38.1924 H 0.0 **** 0.0
4639 H 16.4431 67.0459 39.3554 H 0.0 **** 0.0
4640 H 15.7176 66.9873 37.8234 H 0.0 **** 0.0
4641 H 17.7854 68.9954 38.9244 H 0.0 **** 0.0
4642 H 15.0549 69.2433 37.5687 H 0.0 **** 0.0
4643 H 15.6342 69.6849 39.2231 H 0.0 **** 0.0
4644 H 18.5292 72.8242 35.949 H 0.0 **** 0.0
4645 H 17.2259 74.6957 36.7068 H 0.0 **** 0.0
4646 H 23.9941 64.5114 23.8376 H 0.0 **** 0.0
4647 H 24.7182 64.293 22.184 H 0.0 **** 0.0
4648 H 22.7049 63.5829 21.2301 H 0.0 **** 0.0
4649 H 21.6734 64.4675 22.4014 H 0.0 **** 0.0
4650 H 22.5595 62.9054 22.8714 H 0.0 **** 0.0
4651 H 24.3557 66.3933 18.9327 H 0.0 **** 0.0
4652 H 23.5739 65.0484 19.7468 H 0.0 **** 0.0
4653 H 25.3586 65.2222 19.9106 H 0.0 **** 0.0
4654 H 22.0228 67.3812 25.1954 H 0.0 **** 0.0
4655 H 22.9268 65.8145 25.1996 H 0.0 **** 0.0
4656 H 21.593 66.0672 24.1106 H 0.0 **** 0.0
4657 H 26.2412 69.3123 20.2317 H 0.0 **** 0.0
4658 H 25.0892 68.5963 19.0847 H 0.0 **** 0.0
4659 H 26.3915 67.5625 19.8573 H 0.0 **** 0.0
4660 H 26.726 73.9048 22.5135 H 0.0 **** 0.0
4661 H 25.6738 73.0746 21.1973 H 0.0 **** 0.0
4662 H 27.0563 72.2355 22.1027 H 0.0 **** 0.0
4663 H 23.8991 75.6396 24.2065 H 0.0 **** 0.0
4664 H 24.8184 75.2641 22.7562 H 0.0 **** 0.0
4665 H 25.6996 75.3455 24.3649 H 0.0 **** 0.0
4666 H 24.7297 75.3707 27.5959 H 0.0 **** 0.0
4667 H 19.0674 76.7464 25.1644 H 0.0 **** 0.0
4668 H 20.3218 77.8158 25.9858 H 0.0 **** 0.0
4669 H 19.0878 77.0605 27.0131 H 0.0 **** 0.0
4670 H 18.074 73.1598 26.0493 H 0.0 **** 0.0
4671 H 18.7378 74.3012 24.7699 H 0.0 **** 0.0
4672 H 17.7811 74.9322 26.1431 H 0.0 **** 0.0
4673 H 20.4056 74.7144 31.2924 H 0.0 **** 0.0
4674 H 21.3642 68.9027 28.3882 H 0.0 **** 0.0
4675 H 14.3428 72.3378 39.9457 H 0.0 **** 0.0
4676 H 13.7161 70.9205 39.0516 H 0.0 **** 0.0
4677 H 13.2468 72.5594 38.5692 H 0.0 **** 0.0
4678 H 13.9048 74.5417 37.5701 H 0.0 **** 0.0
4679 H 15.3979 75.5534 37.6317 H 0.0 **** 0.0
4680 H 14.8177 74.7847 39.1342 H 0.0 **** 0.0
4681 C 74.6491 56.889 93.1596 C 0.0 **** 0.0
4682 C 73.875 56.0484 94.0016 C 0.0 **** 0.0
4683 C 73.1734 54.9344 93.4695 C 0.0 **** 0.0
4684 C 73.0988 54.7755 92.0652 C 0.0 **** 0.0
4685 C 73.6829 55.7357 91.2007 C 0.0 **** 0.0
4686 C 74.5627 56.7356 91.7471 C 0.0 **** 0.0
4687 C 72.3565 53.5529 91.4562 C 0.0 **** 0.0
4688 C 72.2276 52.3877 92.3407 C 0.0 **** 0.0
4689 C 72.3993 52.4951 93.764 C 0.0 **** 0.0
4690 C 72.5491 53.8681 94.3929 C 0.0 **** 0.0
4691 C 72.597 51.3176 94.4942 C 0.0 **** 0.0
4692 C 72.5131 50.0723 93.8727 C 0.0 **** 0.0
4693 C 71.8762 49.9552 92.6297 C 0.0 **** 0.0
4694 C 71.8334 51.089 91.7837 C 0.0 **** 0.0
4695 C 71.4622 50.8722 90.4318 C 0.0 **** 0.0
4696 C 71.0714 49.6036 89.8997 C 0.0 **** 0.0
4697 C 70.8683 48.5513 90.8434 C 0.0 **** 0.0
4698 C 71.3186 48.7414 92.1803 C 0.0 **** 0.0
4699 C 70.3005 47.2199 90.4528 C 0.0 **** 0.0
4700 C 70.4631 46.8262 88.9512 C 0.0 **** 0.0
4701 C 70.8377 47.9712 88.0588 C 0.0 **** 0.0
4702 C 70.8497 49.3006 88.4901 C 0.0 **** 0.0
4703 C 69.2876 46.041 88.4505 C 0.0 **** 0.0
4704 C 68.0215 46.7657 88.8484 C 0.0 **** 0.0
4705 C 67.74 46.7396 90.313 C 0.0 **** 0.0
4706 C 69.0569 46.6898 91.1357 C 0.0 **** 0.0
4707 C 70.8045 50.3223 87.4815 C 0.0 **** 0.0
4708 C 71.0721 50.0334 86.163 C 0.0 **** 0.0
4709 C 71.6005 48.7452 85.8955 C 0.0 **** 0.0
4710 C 71.2724 47.701 86.7545 C 0.0 **** 0.0
4711 C 72.1764 48.5196 84.599 C 0.0 **** 0.0
4712 C 71.7324 49.2792 83.3918 C 0.0 **** 0.0
4713 C 71.1707 50.5534 83.621 C 0.0 **** 0.0
4714 C 70.993 51.0332 85.0428 C 0.0 **** 0.0
4715 C 70.8496 51.4035 82.4482 C 0.0 **** 0.0
4716 C 70.1011 50.5875 81.3504 C 0.0 **** 0.0
4717 C 70.7361 49.2479 81.1248 C 0.0 **** 0.0
4718 C 71.5889 48.6769 82.1212 C 0.0 **** 0.0
4719 N 72.1817 47.49 81.9123 N 0.0 **** 0.0
4720 C 71.9535 46.7409 80.8069 C 0.0 **** 0.0
4721 C 71.0632 47.2167 79.808 C 0.0 **** 0.0
4722 C 70.4478 48.4713 79.9679 C 0.0 **** 0.0
4723 C 69.339 48.8657 78.9928 C 0.0 **** 0.0
4724 C 69.5144 48.2934 77.5407 C 0.0 **** 0.0
4725 C 69.7241 46.7851 77.6433 C 0.0 **** 0.0
4726 C 71.0296 46.5287 78.477 C 0.0 **** 0.0
4727 C 71.2138 45.0016 78.6292 C 0.0 **** 0.0
4728 C 72.4006 44.6936 79.5101 C 0.0 **** 0.0
4729 C 72.6348 45.504 80.6269 C 0.0 **** 0.0
4730 C 73.7209 45.2166 81.5158 C 0.0 **** 0.0
4731 C 74.4323 44.021 81.3883 C 0.0 **** 0.0
4732 C 74.2177 43.1932 80.2835 C 0.0 **** 0.0
4733 C 73.1544 43.4748 79.3573 C 0.0 **** 0.0
4734 C 75.5762 57.3916 90.8234 C 0.0 **** 0.0
4735 C 75.121 58.7739 90.298 C 0.0 **** 0.0
4736 C 75.571 57.8896 93.8566 C 0.0 **** 0.0
4737 C 73.2678 55.7465 89.7156 C 0.0 **** 0.0
4738 C 73.8186 56.3005 95.5004 C 0.0 **** 0.0
4739 C 73.0269 51.4289 95.9664 C 0.0 **** 0.0
4740 C 73.4456 48.981 94.3478 C 0.0 **** 0.0
4741 O 71.155 47.7324 93.1264 O 0.0 **** 0.0
4742 C 66.8089 45.5882 90.8543 C 0.0 **** 0.0
4743 C 66.8582 46.3557 88.0145 C 0.0 **** 0.0
4744 O 71.4573 46.3926 86.4074 O 0.0 **** 0.0
4745 O 70.2583 51.5952 87.8011 O 0.0 **** 0.0
4746 O 70.747 52.2026 85.2849 O 0.0 **** 0.0
4747 O 73.1215 47.7666 84.4737 O 0.0 **** 0.0
4748 C 72.8946 42.5483 78.2217 C 0.0 **** 0.0
4749 C 75.0351 41.9732 80.2117 C 0.0 **** 0.0
4750 H 71.3397 53.8839 91.1235 H 0.0 **** 0.0
4751 H 72.983 53.1361 90.6316 H 0.0 **** 0.0
4752 H 73.2195 53.7283 95.2458 H 0.0 **** 0.0
4753 H 71.5281 54.2263 94.7069 H 0.0 **** 0.0
4754 H 71.5756 51.6724 89.6928 H 0.0 **** 0.0
4755 H 69.363 45.8325 87.3678 H 0.0 **** 0.0
4756 H 69.3557 45.0239 88.861 H 0.0 **** 0.0
4757 H 68.1483 47.8403 88.5856 H 0.0 **** 0.0
4758 H 67.302 47.7729 90.501 H 0.0 **** 0.0
4759 H 69.3249 45.6704 91.464 H 0.0 **** 0.0
4760 H 68.8312 47.3147 92.0478 H 0.0 **** 0.0
4761 H 70.1077 52.2083 82.7187 H 0.0 **** 0.0
4762 H 71.8037 51.8244 82.002 H 0.0 **** 0.0
4763 H 70.1481 51.2024 80.4224 H 0.0 **** 0.0
4764 H 68.9633 50.4507 81.5783 H 0.0 **** 0.0
4765 H 68.4197 48.488 79.5386 H 0.0 **** 0.0
4766 H 69.3112 49.9948 78.8996 H 0.0 **** 0.0
4767 H 70.3722 48.7765 77.0171 H 0.0 **** 0.0
4768 H 68.5963 48.5427 77.0005 H 0.0 **** 0.0
4769 H 69.7563 46.3382 76.6339 H 0.0 **** 0.0
4770 H 68.8844 46.34 78.1877 H 0.0 **** 0.0
4771 H 71.8949 46.8673 77.8635 H 0.0 **** 0.0
4772 H 70.3179 44.5529 79.1528 H 0.0 **** 0.0
4773 H 71.343 44.592 77.5826 H 0.0 **** 0.0
4774 H 73.8882 45.8368 82.4267 H 0.0 **** 0.0
4775 H 75.166 43.7922 82.1352 H 0.0 **** 0.0
4776 H 75.7978 56.7308 89.9426 H 0.0 **** 0.0
4777 H 76.555 57.4833 91.3667 H 0.0 **** 0.0
4778 H 74.8802 59.4374 91.147 H 0.0 **** 0.0
4779 H 74.164 58.6888 89.7047 H 0.0 **** 0.0
4780 H 75.9225 59.1954 89.6878 H 0.0 **** 0.0
4781 H 76.3197 57.3463 94.4859 H 0.0 **** 0.0
4782 H 74.9492 58.4068 94.6157 H 0.0 **** 0.0
4783 H 76.1429 58.6477 93.3132 H 0.0 **** 0.0
4784 H 72.182 55.8864 89.6765 H 0.0 **** 0.0
4785 H 73.6707 54.8234 89.2329 H 0.0 **** 0.0
4786 H 73.7603 56.494 89.1123 H 0.0 **** 0.0
4787 H 73.3347 55.5516 96.0926 H 0.0 **** 0.0
4788 H 73.2377 57.2454 95.6975 H 0.0 **** 0.0
4789 H 74.8382 56.4753 95.8986 H 0.0 **** 0.0
4790 H 74.1125 51.8226 96.036 H 0.0 **** 0.0
4791 H 72.9331 50.4649 96.4354 H 0.0 **** 0.0
4792 H 72.4062 52.0682 96.6184 H 0.0 **** 0.0
4793 H 72.9359 48.3316 95.0774 H 0.0 **** 0.0
4794 H 74.3036 49.4292 94.7832 H 0.0 **** 0.0
4795 H 73.7383 48.3174 93.5266 H 0.0 **** 0.0
4796 H 71.3548 46.7629 92.7928 H 0.0 **** 0.0
4797 H 65.8042 45.7136 90.4479 H 0.0 **** 0.0
4798 H 66.8373 45.6144 91.9696 H 0.0 **** 0.0
4799 H 67.2243 44.5806 90.51 H 0.0 **** 0.0
4800 H 67.1708 46.4776 86.9839 H 0.0 **** 0.0
4801 H 66.0302 46.985 88.3544 H 0.0 **** 0.0
4802 H 66.6421 45.2577 88.1776 H 0.0 **** 0.0
4803 H 71.4526 46.1923 85.4266 H 0.0 **** 0.0
4804 H 69.4325 51.8415 87.2833 H 0.0 **** 0.0
4805 H 71.7909 42.2847 78.2086 H 0.0 **** 0.0
4806 H 73.4643 41.5561 78.2256 H 0.0 **** 0.0
4807 H 73.0839 43.1557 77.2947 H 0.0 **** 0.0
4808 H 74.3165 41.1193 80.3675 H 0.0 **** 0.0
4809 H 75.7725 41.9133 80.9683 H 0.0 **** 0.0
4810 H 75.5924 41.9808 79.238 H 0.0 **** 0.0
4811 C 43.5515 30.9998 50.7336 C 0.0 **** 0.0
4812 C 43.4464 31.9447 49.7063 C 0.0 **** 0.0
4813 C 42.2764 32.7307 49.5519 C 0.0 **** 0.0
4814 C 41.2471 32.6444 50.5227 C 0.0 **** 0.0
4815 C 41.4397 31.7966 51.629 C 0.0 **** 0.0
4816 C 42.5485 30.8957 51.6753 C 0.0 **** 0.0
4817 C 40.0417 33.528 50.3848 C 0.0 **** 0.0
4818 C 39.7673 34.2717 49.118 C 0.0 **** 0.0
4819 C 40.7728 34.3509 48.1335 C 0.0 **** 0.0
4820 C 42.11 33.666 48.3279 C 0.0 **** 0.0
4821 C 40.5023 35.1018 46.943 C 0.0 **** 0.0
4822 C 39.1905 35.5427 46.6565 C 0.0 **** 0.0
4823 C 38.1699 35.4662 47.6635 C 0.0 **** 0.0
4824 C 38.4921 34.8736 48.9152 C 0.0 **** 0.0
4825 C 37.5681 34.9984 49.9909 C 0.0 **** 0.0
4826 C 36.3175 35.6158 49.8113 C 0.0 **** 0.0
4827 C 35.8855 35.8571 48.502 C 0.0 **** 0.0
4828 C 36.8413 35.961 47.449 C 0.0 **** 0.0
4829 C 34.3668 36.058 48.2152 C 0.0 **** 0.0
4830 C 33.4739 35.9244 49.4619 C 0.0 **** 0.0
4831 C 34.1334 36.2312 50.7427 C 0.0 **** 0.0
4832 C 35.5378 36.1261 50.9245 C 0.0 **** 0.0
4833 C 32.7101 34.5918 49.4919 C 0.0 **** 0.0
4834 C 32.1172 34.0699 48.1527 C 0.0 **** 0.0
4835 C 32.3547 34.933 46.9894 C 0.0 **** 0.0
4836 C 33.8517 35.2358 46.994 C 0.0 **** 0.0
4837 C 36.1444 36.5419 52.1191 C 0.0 **** 0.0
4838 C 35.3243 36.8868 53.1995 C 0.0 **** 0.0
4839 C 33.9055 36.8311 53.1025 C 0.0 **** 0.0
4840 C 33.339 36.6618 51.8427 C 0.0 **** 0.0
4841 C 33.0424 36.8784 54.3735 C 0.0 **** 0.0
4842 C 33.6932 36.9054 55.7179 C 0.0 **** 0.0
4843 C 35.0629 37.2449 55.7568 C 0.0 **** 0.0
4844 C 35.8298 37.4698 54.4925 C 0.0 **** 0.0
4845 C 35.64 37.6297 57.0743 C 0.0 **** 0.0
4846 C 35.1145 36.7924 58.242 C 0.0 **** 0.0
4847 C 33.6135 36.6374 58.1972 C 0.0 **** 0.0
4848 C 32.944 36.6889 56.9199 C 0.0 **** 0.0
4849 N 31.6046 36.5305 56.8853 N 0.0 **** 0.0
4850 C 30.8349 36.2965 57.9395 C 0.0 **** 0.0
4851 C 31.4082 36.2149 59.235 C 0.0 **** 0.0
4852 C 32.8219 36.3876 59.378 C 0.0 **** 0.0
4853 C 33.4761 36.4112 60.7794 C 0.0 **** 0.0
4854 C 32.4772 36.5901 61.9055 C 0.0 **** 0.0
4855 C 31.202 35.7165 61.6834 C 0.0 **** 0.0
4856 C 30.4808 36.1486 60.4248 C 0.0 **** 0.0
4857 C 29.2321 35.3295 60.1392 C 0.0 **** 0.0
4858 C 28.6026 35.6722 58.7767 C 0.0 **** 0.0
4859 C 29.4926 36.0484 57.7161 C 0.0 **** 0.0
4860 C 28.9358 36.2714 56.4402 C 0.0 **** 0.0
4861 C 27.6134 36.1037 56.1715 C 0.0 **** 0.0
4862 C 26.7225 35.795 57.205 C 0.0 **** 0.0
4863 C 27.2223 35.5179 58.5068 C 0.0 **** 0.0
4864 C 42.4895 29.7071 52.672 C 0.0 **** 0.0
4865 C 41.6593 28.5816 52.1074 C 0.0 **** 0.0
4866 C 44.7184 30.0386 50.6817 C 0.0 **** 0.0
4867 C 40.4382 31.8031 52.7764 C 0.0 **** 0.0
4868 C 44.5435 32.054 48.6441 C 0.0 **** 0.0
4869 C 41.6218 35.326 45.9047 C 0.0 **** 0.0
4870 C 38.9255 36.0829 45.2395 C 0.0 **** 0.0
4871 O 36.5275 36.6559 46.2931 O 0.0 **** 0.0
4872 C 31.536 36.2288 46.9614 C 0.0 **** 0.0
4873 C 30.5978 33.7137 48.2314 C 0.0 **** 0.0
4874 O 31.9542 36.9497 51.6272 O 0.0 **** 0.0
4875 O 37.5477 36.5344 52.2578 O 0.0 **** 0.0
4876 O 36.7289 38.2582 54.4803 O 0.0 **** 0.0
4877 O 31.8475 36.8615 54.3194 O 0.0 **** 0.0
4878 C 26.3063 35.0816 59.618 C 0.0 **** 0.0
4879 C 25.2417 35.8478 56.8946 C 0.0 **** 0.0
4880 H 39.1527 32.8657 50.5181 H 0.0 **** 0.0
4881 H 40.1082 34.2935 51.2211 H 0.0 **** 0.0
4882 H 42.8987 34.431 48.3746 H 0.0 **** 0.0
4883 H 42.3454 33.0662 47.4207 H 0.0 **** 0.0
4884 H 37.7942 34.5896 50.9535 H 0.0 **** 0.0
4885 H 33.3968 33.833 49.8824 H 0.0 **** 0.0
4886 H 31.9158 34.6958 50.2555 H 0.0 **** 0.0
4887 H 32.6763 33.115 47.9482 H 0.0 **** 0.0
4888 H 32.1035 34.3859 46.0316 H 0.0 **** 0.0
4889 H 34.0848 35.7636 46.0355 H 0.0 **** 0.0
4890 H 34.3921 34.3177 46.8929 H 0.0 **** 0.0
4891 H 36.7416 37.4427 57.0791 H 0.0 **** 0.0
4892 H 35.4306 38.7265 57.3079 H 0.0 **** 0.0
4893 H 35.4935 37.1759 59.212 H 0.0 **** 0.0
4894 H 35.6076 35.7807 58.1858 H 0.0 **** 0.0
4895 H 34.083 35.4817 60.8816 H 0.0 **** 0.0
4896 H 34.158 37.2587 60.8228 H 0.0 **** 0.0
4897 H 32.2021 37.6795 61.977 H 0.0 **** 0.0
4898 H 32.9999 36.2566 62.8227 H 0.0 **** 0.0
4899 H 30.5527 35.8594 62.6049 H 0.0 **** 0.0
4900 H 31.5124 34.657 61.6673 H 0.0 **** 0.0
4901 H 30.1437 37.1468 60.6128 H 0.0 **** 0.0
4902 H 29.5021 34.2621 60.0866 H 0.0 **** 0.0
4903 H 28.5451 35.5242 60.9463 H 0.0 **** 0.0
4904 H 29.5539 36.5764 55.6253 H 0.0 **** 0.0
4905 H 27.2269 36.2559 55.1101 H 0.0 **** 0.0
4906 H 41.9917 30.0084 53.6433 H 0.0 **** 0.0
4907 H 43.4949 29.3221 52.9866 H 0.0 **** 0.0
4908 H 42.326 28.0614 51.3997 H 0.0 **** 0.0
4909 H 40.7888 28.9594 51.5239 H 0.0 **** 0.0
4910 H 41.2204 27.8779 52.8382 H 0.0 **** 0.0
4911 H 44.7994 29.6387 49.6506 H 0.0 **** 0.0
4912 H 44.6341 29.1253 51.3135 H 0.0 **** 0.0
4913 H 45.6584 30.5812 51.0304 H 0.0 **** 0.0
4914 H 39.6561 32.6052 52.6372 H 0.0 **** 0.0
4915 H 41.0093 32.0407 53.6885 H 0.0 **** 0.0
4916 H 39.9021 30.8604 52.8427 H 0.0 **** 0.0
4917 H 44.7106 33.1405 48.3124 H 0.0 **** 0.0
4918 H 44.3422 31.3971 47.786 H 0.0 **** 0.0
4919 H 45.544 31.7921 49.0161 H 0.0 **** 0.0
4920 H 41.4805 36.2936 45.3454 H 0.0 **** 0.0
4921 H 41.7213 34.4419 45.2047 H 0.0 **** 0.0
4922 H 42.5653 35.5177 46.3712 H 0.0 **** 0.0
4923 H 37.9615 35.7321 44.838 H 0.0 **** 0.0
4924 H 39.6513 35.6856 44.4837 H 0.0 **** 0.0
4925 H 38.9592 37.189 45.3199 H 0.0 **** 0.0
4926 H 35.6549 37.1979 46.3828 H 0.0 **** 0.0
4927 H 30.5086 35.9901 46.6355 H 0.0 **** 0.0
4928 H 32.0275 37.0287 46.3527 H 0.0 **** 0.0
4929 H 31.5077 36.7711 47.9148 H 0.0 **** 0.0
4930 H 30.4765 32.8337 48.9502 H 0.0 **** 0.0
4931 H 30.1116 33.3096 47.2923 H 0.0 **** 0.0
4932 H 29.9885 34.6257 48.5315 H 0.0 **** 0.0
4933 H 31.5837 37.6698 52.2556 H 0.0 **** 0.0
4934 H 37.9068 36.4688 53.2155 H 0.0 **** 0.0
4935 H 26.6891 34.1329 60.1411 H 0.0 **** 0.0
4936 H 25.2718 34.9117 59.2934 H 0.0 **** 0.0
4937 H 26.2491 35.8734 60.3436 H 0.0 **** 0.0
4938 H 24.8608 34.8324 56.6705 H 0.0 **** 0.0
4939 H 25.1266 36.4248 55.9182 H 0.0 **** 0.0
4940 H 24.645 36.3372 57.6443 H 0.0 **** 0.0
4941 C 86.2673 38.6807 34.7883 C 0.0 **** 0.0
4942 C 85.626 37.3873 34.8263 C 0.0 **** 0.0
4943 C 85.8678 36.4604 33.7725 C 0.0 **** 0.0
4944 C 86.6653 36.8111 32.6886 C 0.0 **** 0.0
4945 C 87.3386 38.0335 32.6773 C 0.0 **** 0.0
4946 C 87.27 38.8821 33.7954 C 0.0 **** 0.0
4947 C 86.5755 35.9492 31.3931 C 0.0 **** 0.0
4948 C 86.0961 34.5083 31.5889 C 0.0 **** 0.0
4949 C 85.6907 34.0902 32.8442 C 0.0 **** 0.0
4950 C 85.2573 35.0791 33.8923 C 0.0 **** 0.0
4951 C 85.5917 32.7028 33.0902 C 0.0 **** 0.0
4952 C 85.9452 31.7333 32.1061 C 0.0 **** 0.0
4953 C 86.0238 32.1713 30.7704 C 0.0 **** 0.0
4954 C 86.1656 33.5449 30.5443 C 0.0 **** 0.0
4955 C 86.4464 33.965 29.231 C 0.0 **** 0.0
4956 C 86.2221 33.1042 28.1199 C 0.0 **** 0.0
4957 C 85.7647 31.7938 28.3979 C 0.0 **** 0.0
4958 C 85.9333 31.2602 29.667 C 0.0 **** 0.0
4959 C 85.0935 30.9552 27.3277 C 0.0 **** 0.0
4960 C 84.7683 31.7386 26.0808 C 0.0 **** 0.0
4961 C 85.7349 32.7903 25.7656 C 0.0 **** 0.0
4962 C 86.3898 33.5329 26.7666 C 0.0 **** 0.0
4963 C 83.2836 32.2119 25.9173 C 0.0 **** 0.0
4964 C 82.5211 32.145 27.229 C 0.0 **** 0.0
4965 C 82.4844 30.7735 27.8385 C 0.0 **** 0.0
4966 C 83.8476 30.0568 27.6616 C 0.0 **** 0.0
4967 C 87.3105 34.5193 26.3423 C 0.0 **** 0.0
4968 C 87.4938 34.7912 24.9174 C 0.0 **** 0.0
4969 C 86.7301 34.0686 23.9817 C 0.0 **** 0.0
4970 C 85.9817 32.9765 24.4114 C 0.0 **** 0.0
4971 C 86.6158 34.5493 22.5813 C 0.0 **** 0.0
4972 C 87.3741 35.7265 22.105 C 0.0 **** 0.0
4973 C 88.4287 36.1561 22.907 C 0.0 **** 0.0
4974 C 88.5175 35.6997 24.3512 C 0.0 **** 0.0
4975 C 89.3528 37.2327 22.434 C 0.0 **** 0.0
4976 C 88.5544 38.3447 21.6881 C 0.0 **** 0.0
4977 C 87.5801 37.794 20.7064 C 0.0 **** 0.0
4978 C 87.0118 36.5067 20.9769 C 0.0 **** 0.0
4979 N 86.0171 36.0527 20.1636 N 0.0 **** 0.0
4980 C 85.564 36.7189 19.0727 C 0.0 **** 0.0
4981 C 86.2408 37.902 18.6527 C 0.0 **** 0.0
4982 C 87.2408 38.4605 19.531 C 0.0 **** 0.0
4983 C 87.9473 39.7378 19.1239 C 0.0 **** 0.0
4984 C 87.6406 40.3114 17.7634 C 0.0 **** 0.0
4985 C 86.1917 40.0511 17.3749 C 0.0 **** 0.0
4986 C 85.8933 38.5381 17.3481 C 0.0 **** 0.0
4987 C 84.4021 38.3795 17.0198 C 0.0 **** 0.0
4988 C 83.8465 36.9951 17.3377 C 0.0 **** 0.0
4989 C 84.4486 36.2342 18.3612 C 0.0 **** 0.0
4990 C 83.8669 35.0214 18.7398 C 0.0 **** 0.0
4991 C 82.6316 34.6365 18.1927 C 0.0 **** 0.0
4992 C 81.9829 35.3657 17.197 C 0.0 **** 0.0
4993 C 82.6361 36.5381 16.7066 C 0.0 **** 0.0
4994 C 88.1404 40.157 33.7914 C 0.0 **** 0.0
4995 C 87.4478 41.4169 33.3115 C 0.0 **** 0.0
4996 C 85.9528 39.7572 35.8178 C 0.0 **** 0.0
4997 C 88.1321 38.4411 31.4472 C 0.0 **** 0.0
4998 C 84.7537 37.0266 35.9986 C 0.0 **** 0.0
4999 C 84.9848 32.2095 34.3939 C 0.0 **** 0.0
5000 C 86.1929 30.2793 32.4611 C 0.0 **** 0.0
5001 O 85.9579 29.8846 29.8244 O 0.0 **** 0.0
5002 C 81.3321 29.8814 27.317 C 0.0 **** 0.0
5003 C 81.1477 32.7605 27.1847 C 0.0 **** 0.0
5004 O 85.4802 32.0556 23.5023 O 0.0 **** 0.0
5005 O 88.2449 34.9736 27.3117 O 0.0 **** 0.0
5006 O 89.4377 36.0857 25.0334 O 0.0 **** 0.0
5007 O 85.8979 33.9585 21.78 O 0.0 **** 0.0
5008 C 82.0382 37.3424 15.5732 C 0.0 **** 0.0
5009 C 80.6806 34.8331 16.5904 C 0.0 **** 0.0
5010 H 85.9402 36.5135 30.6601 H 0.0 **** 0.0
5011 H 87.6236 35.8476 31.0114 H 0.0 **** 0.0
5012 H 85.5514 34.7055 34.8681 H 0.0 **** 0.0
5013 H 84.1829 35.0988 33.8715 H 0.0 **** 0.0
5014 H 86.6717 34.979 28.9966 H 0.0 **** 0.0
5015 H 83.2356 33.2673 25.562 H 0.0 **** 0.0
5016 H 82.7595 31.5931 25.1634 H 0.0 **** 0.0
5017 H 83.0565 32.7602 28.0284 H 0.0 **** 0.0
5018 H 82.2703 30.9058 28.9463 H 0.0 **** 0.0
5019 H 83.8031 29.3494 26.7762 H 0.0 **** 0.0
5020 H 84.0888 29.4517 28.528 H 0.0 **** 0.0
5021 H 89.936 37.6609 23.266 H 0.0 **** 0.0
5022 H 90.1247 36.8254 21.7709 H 0.0 **** 0.0
5023 H 89.3251 39.0515 21.2799 H 0.0 **** 0.0
5024 H 87.9617 38.9518 22.4168 H 0.0 **** 0.0
5025 H 87.6221 40.5042 19.8836 H 0.0 **** 0.0
5026 H 89.0362 39.6082 19.1392 H 0.0 **** 0.0
5027 H 88.2942 39.801 17.041 H 0.0 **** 0.0
5028 H 87.8216 41.4091 17.7282 H 0.0 **** 0.0
5029 H 85.9954 40.4291 16.3444 H 0.0 **** 0.0
5030 H 85.5164 40.5652 18.0844 H 0.0 **** 0.0
5031 H 86.4838 38.068 16.5235 H 0.0 **** 0.0
5032 H 83.8385 39.1382 17.5686 H 0.0 **** 0.0
5033 H 84.2164 38.6541 16.0035 H 0.0 **** 0.0
5034 H 84.2598 34.3522 19.5087 H 0.0 **** 0.0
5035 H 82.1059 33.7931 18.6513 H 0.0 **** 0.0
5036 H 89.0883 40.0118 33.2535 H 0.0 **** 0.0
5037 H 88.5267 40.3748 34.8102 H 0.0 **** 0.0
5038 H 87.0773 41.2626 32.2729 H 0.0 **** 0.0
5039 H 88.1854 42.2506 33.3994 H 0.0 **** 0.0
5040 H 86.5768 41.7049 33.9438 H 0.0 **** 0.0
5041 H 85.7384 39.3278 36.7946 H 0.0 **** 0.0
5042 H 85.0961 40.3795 35.4012 H 0.0 **** 0.0
5043 H 86.7638 40.511 35.9803 H 0.0 **** 0.0
5044 H 87.9541 37.952 30.4518 H 0.0 **** 0.0
5045 H 89.2019 38.3339 31.7164 H 0.0 **** 0.0
5046 H 87.8197 39.4737 31.1803 H 0.0 **** 0.0
5047 H 85.3887 36.8498 36.8901 H 0.0 **** 0.0
5048 H 84.0508 36.1934 35.8747 H 0.0 **** 0.0
5049 H 84.1358 37.9128 36.178 H 0.0 **** 0.0
5050 H 85.6702 32.3586 35.2679 H 0.0 **** 0.0
5051 H 84.6568 31.1575 34.4682 H 0.0 **** 0.0
5052 H 84.046 32.7796 34.5996 H 0.0 **** 0.0
5053 H 85.3421 29.6381 32.1464 H 0.0 **** 0.0
5054 H 86.3174 30.1153 33.5476 H 0.0 **** 0.0
5055 H 87.1192 29.9158 31.9938 H 0.0 **** 0.0
5056 H 86.485 29.3515 29.1444 H 0.0 **** 0.0
5057 H 80.3736 30.2874 27.6712 H 0.0 **** 0.0
5058 H 81.4432 28.8094 27.7137 H 0.0 **** 0.0
5059 H 81.3292 29.8886 26.1867 H 0.0 **** 0.0
5060 H 81.2827 33.8381 26.9699 H 0.0 **** 0.0
5061 H 80.7052 32.6576 28.2241 H 0.0 **** 0.0
5062 H 80.4705 32.2459 26.4853 H 0.0 **** 0.0
5063 H 86.1709 31.8657 22.8043 H 0.0 **** 0.0
5064 H 88.7764 35.8157 27.1954 H 0.0 **** 0.0
5065 H 81.8586 38.3703 15.9058 H 0.0 **** 0.0
5066 H 81.075 37.0289 15.1891 H 0.0 **** 0.0
5067 H 82.7429 37.374 14.6778 H 0.0 **** 0.0
5068 H 79.811 35.4648 16.8549 H 0.0 **** 0.0
5069 H 80.4073 33.8417 17.0504 H 0.0 **** 0.0
5070 H 80.741 34.7289 15.4774 H 0.0 **** 0.0
5071 C 74.1726 37.2829 47.6171 C 0.0 **** 0.0
5072 C 73.144 36.8935 46.7054 C 0.0 **** 0.0
5073 C 73.4428 36.5312 45.3835 C 0.0 **** 0.0
5074 C 74.771 36.4606 44.9251 C 0.0 **** 0.0
5075 C 75.8212 36.6447 45.8727 C 0.0 **** 0.0
5076 C 75.4976 37.0725 47.2009 C 0.0 **** 0.0
5077 C 75.1089 36.0149 43.5462 C 0.0 **** 0.0
5078 C 74.0376 35.4601 42.6541 C 0.0 **** 0.0
5079 C 72.6682 35.5579 43.0518 C 0.0 **** 0.0
5080 C 72.3084 36.172 44.4156 C 0.0 **** 0.0
5081 C 71.6463 35.0176 42.1924 C 0.0 **** 0.0
5082 C 71.9427 34.4746 40.9076 C 0.0 **** 0.0
5083 C 73.2676 34.5452 40.4847 C 0.0 **** 0.0
5084 C 74.3197 34.8866 41.3847 C 0.0 **** 0.0
5085 C 75.6207 34.5141 41.0758 C 0.0 **** 0.0
5086 C 75.9851 33.9793 39.8136 C 0.0 **** 0.0
5087 C 75.0494 34.1435 38.8182 C 0.0 **** 0.0
5088 C 73.6607 34.327 39.1379 C 0.0 **** 0.0
5089 C 75.491 34.2954 37.3222 C 0.0 **** 0.0
5090 C 76.8382 33.643 37.0022 C 0.0 **** 0.0
5091 C 77.4902 32.9019 38.1768 C 0.0 **** 0.0
5092 C 77.213 33.2365 39.5594 C 0.0 **** 0.0
5093 C 77.8631 34.6186 36.3904 C 0.0 **** 0.0
5094 C 77.8081 36.0242 37.0713 C 0.0 **** 0.0
5095 C 76.483 36.6698 36.9444 C 0.0 **** 0.0
5096 C 75.3121 35.6855 36.6628 C 0.0 **** 0.0
5097 C 77.9762 32.6172 40.5627 C 0.0 **** 0.0
5098 C 79.1054 31.8252 40.2038 C 0.0 **** 0.0
5099 C 79.2311 31.3091 38.9115 C 0.0 **** 0.0
5100 C 78.3645 31.8539 37.898 C 0.0 **** 0.0
5101 C 80.2633 30.2264 38.7158 C 0.0 **** 0.0
5102 C 80.9325 29.5665 39.91 C 0.0 **** 0.0
5103 C 80.9625 30.2834 41.1097 C 0.0 **** 0.0
5104 C 80.1274 31.4541 41.2424 C 0.0 **** 0.0
5105 C 81.6759 29.7124 42.3468 C 0.0 **** 0.0
5106 C 82.8708 28.863 41.9371 C 0.0 **** 0.0
5107 C 82.5217 27.9133 40.8063 C 0.0 **** 0.0
5108 C 81.5881 28.3423 39.8217 C 0.0 **** 0.0
5109 N 81.2633 27.5561 38.743 N 0.0 **** 0.0
5110 C 81.8602 26.3435 38.556 C 0.0 **** 0.0
5111 C 82.7905 25.8526 39.5433 C 0.0 **** 0.0
5112 C 83.0682 26.627 40.6957 C 0.0 **** 0.0
5113 C 83.8863 26.0516 41.8275 C 0.0 **** 0.0
5114 C 84.3473 24.5881 41.6216 C 0.0 **** 0.0
5115 C 84.6437 24.2823 40.1425 C 0.0 **** 0.0
5116 C 83.3693 24.4549 39.3412 C 0.0 **** 0.0
5117 C 83.615 24.1804 37.8534 C 0.0 **** 0.0
5118 C 82.3613 24.4809 37.0093 C 0.0 **** 0.0
5119 C 81.5181 25.5896 37.4203 C 0.0 **** 0.0
5120 C 80.3832 25.9073 36.628 C 0.0 **** 0.0
5121 C 80.179 25.2621 35.4085 C 0.0 **** 0.0
5122 C 81.0528 24.2862 34.9676 C 0.0 **** 0.0
5123 C 82.1506 23.8946 35.7568 C 0.0 **** 0.0
5124 C 76.6001 37.0513 48.2851 C 0.0 **** 0.0
5125 C 77.382 38.4297 48.2995 C 0.0 **** 0.0
5126 C 73.9098 37.8255 49.0093 C 0.0 **** 0.0
5127 C 77.2829 36.5916 45.3503 C 0.0 **** 0.0
5128 C 71.6674 37.027 47.0966 C 0.0 **** 0.0
5129 C 70.1992 35.0084 42.6118 C 0.0 **** 0.0
5130 C 70.8766 33.7947 40.0252 C 0.0 **** 0.0
5131 O 72.6815 34.3768 38.0851 O 0.0 **** 0.0
5132 C 76.4259 37.8386 35.9069 C 0.0 **** 0.0
5133 C 79.043 36.8441 36.6505 C 0.0 **** 0.0
5134 O 78.3758 31.4525 36.5514 O 0.0 **** 0.0
5135 O 77.5616 32.6633 41.8932 O 0.0 **** 0.0
5136 O 80.261 32.1643 42.2295 O 0.0 **** 0.0
5137 O 80.6383 29.8931 37.6036 O 0.0 **** 0.0
5138 C 83.0998 22.8356 35.2283 C 0.0 **** 0.0
5139 C 80.7011 23.5744 33.6802 C 0.0 **** 0.0
5140 H 75.7338 36.7345 42.9916 H 0.0 **** 0.0
5141 H 75.7873 35.1552 43.7899 H 0.0 **** 0.0
5142 H 71.6459 35.4798 44.9515 H 0.0 **** 0.0
5143 H 71.7227 37.1042 44.2253 H 0.0 **** 0.0
5144 H 76.4192 34.7654 41.7424 H 0.0 **** 0.0
5145 H 78.8989 34.2587 36.5159 H 0.0 **** 0.0
5146 H 77.7314 34.6271 35.2664 H 0.0 **** 0.0
5147 H 77.9259 35.8403 38.1653 H 0.0 **** 0.0
5148 H 76.2242 37.0904 37.9398 H 0.0 **** 0.0
5149 H 75.3024 35.5896 35.5746 H 0.0 **** 0.0
5150 H 74.2812 36.0911 36.9689 H 0.0 **** 0.0
5151 H 82.0148 30.5603 42.9956 H 0.0 **** 0.0
5152 H 80.9592 29.1176 42.9648 H 0.0 **** 0.0
5153 H 83.2306 28.323 42.8145 H 0.0 **** 0.0
5154 H 83.6546 29.564 41.6212 H 0.0 **** 0.0
5155 H 84.7113 26.7774 41.9676 H 0.0 **** 0.0
5156 H 83.3833 25.9983 42.7911 H 0.0 **** 0.0
5157 H 83.5864 23.8435 42.0139 H 0.0 **** 0.0
5158 H 85.2346 24.4214 42.2504 H 0.0 **** 0.0
5159 H 84.988 23.2026 40.0359 H 0.0 **** 0.0
5160 H 85.4404 24.9567 39.732 H 0.0 **** 0.0
5161 H 82.5988 23.73 39.7351 H 0.0 **** 0.0
5162 H 84.44 24.8564 37.4914 H 0.0 **** 0.0
5163 H 83.8783 23.1484 37.7159 H 0.0 **** 0.0
5164 H 79.6995 26.6218 36.9642 H 0.0 **** 0.0
5165 H 79.31 25.5703 34.8022 H 0.0 **** 0.0
5166 H 77.3841 36.2948 48.0357 H 0.0 **** 0.0
5167 H 76.2292 36.8156 49.2969 H 0.0 **** 0.0
5168 H 76.7352 39.2727 48.6031 H 0.0 **** 0.0
5169 H 77.6873 38.7535 47.2635 H 0.0 **** 0.0
5170 H 78.2612 38.3416 48.9982 H 0.0 **** 0.0
5171 H 74.6683 38.5718 49.3319 H 0.0 **** 0.0
5172 H 73.9362 36.9666 49.6962 H 0.0 **** 0.0
5173 H 72.9604 38.4163 49.1172 H 0.0 **** 0.0
5174 H 77.3319 37.1532 44.4207 H 0.0 **** 0.0
5175 H 77.5762 35.5619 45.0508 H 0.0 **** 0.0
5176 H 78.0283 36.914 46.0864 H 0.0 **** 0.0
5177 H 71.1367 36.0485 46.9953 H 0.0 **** 0.0
5178 H 71.1465 37.7294 46.448 H 0.0 **** 0.0
5179 H 71.4714 37.3831 48.1291 H 0.0 **** 0.0
5180 H 69.8577 33.962 42.7617 H 0.0 **** 0.0
5181 H 69.5865 35.5335 41.8568 H 0.0 **** 0.0
5182 H 70.0172 35.5665 43.5284 H 0.0 **** 0.0
5183 H 70.6088 34.563 39.2381 H 0.0 **** 0.0
5184 H 69.9846 33.3188 40.5279 H 0.0 **** 0.0
5185 H 71.3856 32.8944 39.5934 H 0.0 **** 0.0
5186 H 73.0102 34.003 37.174 H 0.0 **** 0.0
5187 H 77.0591 38.684 36.2706 H 0.0 **** 0.0
5188 H 75.3627 38.1789 35.8348 H 0.0 **** 0.0
5189 H 76.639 37.532 34.8977 H 0.0 **** 0.0
5190 H 79.9676 36.3549 37.0182 H 0.0 **** 0.0
5191 H 79.0077 37.8715 37.084 H 0.0 **** 0.0
5192 H 79.0904 36.9984 35.5215 H 0.0 **** 0.0
5193 H 78.967 30.6674 36.3005 H 0.0 **** 0.0
5194 H 77.8888 32.0228 42.5784 H 0.0 **** 0.0
5195 H 84.1101 23.0861 35.4497 H 0.0 **** 0.0
5196 H 83.0685 22.7137 34.1236 H 0.0 **** 0.0
5197 H 82.8654 21.916 35.7447 H 0.0 **** 0.0
5198 H 81.5037 23.6828 32.9837 H 0.0 **** 0.0
5199 H 79.8194 24.0362 33.1522 H 0.0 **** 0.0
5200 H 80.5087 22.4932 33.9128 H 0.0 **** 0.0
5201 C 67.121 101.885 8.93255 C 0.0 **** 0.0
5202 C 67.9844 102.741 9.61259 C 0.0 **** 0.0
5203 C 69.3917 102.716 9.36368 C 0.0 **** 0.0
5204 C 69.9442 101.751 8.51267 C 0.0 **** 0.0
5205 C 69.0935 100.861 7.81375 C 0.0 **** 0.0
5206 C 67.6781 100.975 7.95219 C 0.0 **** 0.0
5207 C 71.4124 101.729 8.30738 C 0.0 **** 0.0
5208 C 72.2995 102.567 9.19509 C 0.0 **** 0.0
5209 C 71.7713 103.615 9.92334 C 0.0 **** 0.0
5210 C 70.2689 103.805 10.0055 C 0.0 **** 0.0
5211 C 72.5952 104.63 10.5106 C 0.0 **** 0.0
5212 C 74.0141 104.5 10.4545 C 0.0 **** 0.0
5213 C 74.5864 103.298 9.90542 C 0.0 **** 0.0
5214 C 73.7139 102.357 9.24911 C 0.0 **** 0.0
5215 C 74.3137 101.296 8.59846 C 0.0 **** 0.0
5216 C 75.6862 101.008 8.7226 C 0.0 **** 0.0
5217 C 76.5374 101.86 9.44379 C 0.0 **** 0.0
5218 C 75.9704 102.977 10.0777 C 0.0 **** 0.0
5219 C 78.0003 101.467 9.6756 C 0.0 **** 0.0
5220 C 78.5757 100.539 8.59204 C 0.0 **** 0.0
5221 C 77.5727 100.067 7.59053 C 0.0 **** 0.0
5222 C 76.2394 99.9438 7.99194 C 0.0 **** 0.0
5223 C 79.2841 99.315 9.21447 C 0.0 **** 0.0
5224 C 80.2469 99.6897 10.3826 C 0.0 **** 0.0
5225 C 79.8086 100.834 11.2186 C 0.0 **** 0.0
5226 C 78.2942 100.977 11.1447 C 0.0 **** 0.0
5227 C 75.4046 98.9608 7.42782 C 0.0 **** 0.0
5228 C 75.719 98.414 6.17722 C 0.0 **** 0.0
5229 C 76.9852 98.7668 5.63065 C 0.0 **** 0.0
5230 C 77.9121 99.5444 6.33103 C 0.0 **** 0.0
5231 C 77.3579 98.2323 4.31199 C 0.0 **** 0.0
5232 C 76.4322 97.3135 3.58658 C 0.0 **** 0.0
5233 C 75.0892 97.1627 4.02444 C 0.0 **** 0.0
5234 C 74.7204 97.7109 5.34278 C 0.0 **** 0.0
5235 C 74.1092 96.4199 3.15573 C 0.0 **** 0.0
5236 C 74.8762 95.1289 2.63249 C 0.0 **** 0.0
5237 C 76.1145 95.5775 1.89672 C 0.0 **** 0.0
5238 C 76.869 96.6208 2.4597 C 0.0 **** 0.0
5239 N 78.0315 96.9732 1.82198 N 0.0 **** 0.0
5240 C 78.5292 96.3463 0.731258 C 0.0 **** 0.0
5241 C 77.7833 95.3341 0.0873519 C 0.0 **** 0.0
5242 C 76.52 94.9923 0.668504 C 0.0 **** 0.0
5243 C 75.6375 94.0051 -0.0569664 C 0.0 **** 0.0
5244 C 76.1525 93.5068 -1.43852 C 0.0 **** 0.0
5245 C 77.65 93.3524 -1.41315 C 0.0 **** 0.0
5246 C 78.3104 94.6693 -1.16096 C 0.0 **** 0.0
5247 C 79.8322 94.491 -1.05746 C 0.0 **** 0.0
5248 C 80.5046 95.8174 -0.730994 C 0.0 **** 0.0
5249 C 79.8273 96.7225 0.182236 C 0.0 **** 0.0
5250 C 80.3496 97.9963 0.397009 C 0.0 **** 0.0
5251 C 81.4601 98.4042 -0.332349 C 0.0 **** 0.0
5252 C 82.1919 97.5428 -1.12973 C 0.0 **** 0.0
5253 C 81.74 96.1712 -1.25716 C 0.0 **** 0.0
5254 C 66.8102 100.146 7.06478 C 0.0 **** 0.0
5255 C 66.5135 98.7661 7.58654 C 0.0 **** 0.0
5256 C 65.6462 101.847 9.26556 C 0.0 **** 0.0
5257 C 69.6641 99.9047 6.81163 C 0.0 **** 0.0
5258 C 67.3974 103.818 10.545 C 0.0 **** 0.0
5259 C 72.042 105.766 11.2944 C 0.0 **** 0.0
5260 C 74.9561 105.624 10.7671 C 0.0 **** 0.0
5261 O 76.732 103.732 10.9286 O 0.0 **** 0.0
5262 C 80.5239 102.197 11.0256 C 0.0 **** 0.0
5263 C 81.706 99.7919 9.88238 C 0.0 **** 0.0
5264 O 79.2194 99.7262 5.82304 O 0.0 **** 0.0
5265 O 74.3829 98.3928 8.18558 O 0.0 **** 0.0
5266 O 73.5305 97.5664 5.71435 O 0.0 **** 0.0
5267 O 78.3564 98.6361 3.7581 O 0.0 **** 0.0
5268 C 82.6268 95.1441 -2.05266 C 0.0 **** 0.0
5269 C 83.2548 98.0663 -2.03805 C 0.0 **** 0.0
5270 H 71.7107 100.688 8.54161 H 0.0 **** 0.0
5271 H 71.6014 101.935 7.24142 H 0.0 **** 0.0
5272 H 70.0334 104.759 9.48781 H 0.0 **** 0.0
5273 H 70.0348 103.834 11.1278 H 0.0 **** 0.0
5274 H 73.6803 100.701 7.95328 H 0.0 **** 0.0
5275 H 78.5242 98.5777 9.5974 H 0.0 **** 0.0
5276 H 79.8227 98.6701 8.47728 H 0.0 **** 0.0
5277 H 80.2149 98.7888 11.0128 H 0.0 **** 0.0
5278 H 80.0069 100.53 12.2794 H 0.0 **** 0.0
5279 H 78.0243 101.745 11.9347 H 0.0 **** 0.0
5280 H 77.7448 100.025 11.3578 H 0.0 **** 0.0
5281 H 73.2372 96.0625 3.76068 H 0.0 **** 0.0
5282 H 73.7582 97.0809 2.28784 H 0.0 **** 0.0
5283 H 74.1597 94.5821 1.97302 H 0.0 **** 0.0
5284 H 75.105 94.4849 3.5075 H 0.0 **** 0.0
5285 H 75.5408 93.1935 0.629417 H 0.0 **** 0.0
5286 H 74.6302 94.4355 -0.262941 H 0.0 **** 0.0
5287 H 75.8508 94.2087 -2.26769 H 0.0 **** 0.0
5288 H 75.7249 92.5566 -1.60996 H 0.0 **** 0.0
5289 H 77.9993 93.004 -2.34952 H 0.0 **** 0.0
5290 H 77.908 92.6407 -0.636352 H 0.0 **** 0.0
5291 H 78.1104 95.2914 -2.09666 H 0.0 **** 0.0
5292 H 80.0169 93.854 -0.152835 H 0.0 **** 0.0
5293 H 80.1593 94.0517 -2.01432 H 0.0 **** 0.0
5294 H 79.9199 98.6983 1.0962 H 0.0 **** 0.0
5295 H 81.7797 99.4679 -0.247629 H 0.0 **** 0.0
5296 H 67.2886 100.147 6.04954 H 0.0 **** 0.0
5297 H 65.8612 100.662 6.89033 H 0.0 **** 0.0
5298 H 66.4308 98.7269 8.73477 H 0.0 **** 0.0
5299 H 67.2531 97.9932 7.32949 H 0.0 **** 0.0
5300 H 65.5895 98.4677 7.09922 H 0.0 **** 0.0
5301 H 65.3883 101.661 10.35 H 0.0 **** 0.0
5302 H 65.0378 101.087 8.72108 H 0.0 **** 0.0
5303 H 65.1773 102.804 8.97377 H 0.0 **** 0.0
5304 H 70.7404 99.6709 6.95882 H 0.0 **** 0.0
5305 H 69.5066 100.366 5.86073 H 0.0 **** 0.0
5306 H 69.1746 98.899 6.78374 H 0.0 **** 0.0
5307 H 67.6958 104.786 10.1726 H 0.0 **** 0.0
5308 H 67.6981 103.559 11.5947 H 0.0 **** 0.0
5309 H 66.3457 103.857 10.6384 H 0.0 **** 0.0
5310 H 71.9402 106.644 10.5824 H 0.0 **** 0.0
5311 H 72.7377 105.961 12.1195 H 0.0 **** 0.0
5312 H 71.0507 105.576 11.7408 H 0.0 **** 0.0
5313 H 75.1869 105.657 11.8284 H 0.0 **** 0.0
5314 H 74.4664 106.551 10.5574 H 0.0 **** 0.0
5315 H 75.8056 105.7 10.0365 H 0.0 **** 0.0
5316 H 77.7189 103.633 10.9782 H 0.0 **** 0.0
5317 H 81.585 102.056 11.2858 H 0.0 **** 0.0
5318 H 80.1398 102.923 11.7607 H 0.0 **** 0.0
5319 H 80.5012 102.585 9.9776 H 0.0 **** 0.0
5320 H 82.0505 98.9537 9.24077 H 0.0 **** 0.0
5321 H 82.3821 99.7469 10.7962 H 0.0 **** 0.0
5322 H 81.9361 100.723 9.37462 H 0.0 **** 0.0
5323 H 79.7336 100.449 6.29038 H 0.0 **** 0.0
5324 H 74.476 98.5364 9.17962 H 0.0 **** 0.0
5325 H 82.3793 94.0968 -1.73981 H 0.0 **** 0.0
5326 H 83.7089 95.2581 -1.83744 H 0.0 **** 0.0
5327 H 82.4252 95.2061 -3.15818 H 0.0 **** 0.0
5328 H 84.2252 98.0819 -1.46269 H 0.0 **** 0.0
5329 H 83.0494 99.1448 -2.40773 H 0.0 **** 0.0
5330 H 83.3497 97.411 -2.92271 H 0.0 **** 0.0
5331 C 85.0876 7.8205 38.0706 C 0.0 **** 0.0
5332 C 86.1613 8.75081 38.253 C 0.0 **** 0.0
5333 C 85.9229 9.87983 39.098 C 0.0 **** 0.0
5334 C 84.7987 9.97278 39.91 C 0.0 **** 0.0
5335 C 83.7829 9.00372 39.7884 C 0.0 **** 0.0
5336 C 83.8626 7.98942 38.8032 C 0.0 **** 0.0
5337 C 84.5981 11.0973 40.9206 C 0.0 **** 0.0
5338 C 85.5958 12.236 40.9033 C 0.0 **** 0.0
5339 C 86.6276 12.2836 39.9171 C 0.0 **** 0.0
5340 C 86.9387 11.02 39.1446 C 0.0 **** 0.0
5341 C 87.4311 13.4587 39.7471 C 0.0 **** 0.0
5342 C 87.099 14.6342 40.5374 C 0.0 **** 0.0
5343 C 86.2613 14.5146 41.6414 C 0.0 **** 0.0
5344 C 85.4607 13.365 41.8014 C 0.0 **** 0.0
5345 C 84.4135 13.3655 42.7341 C 0.0 **** 0.0
5346 C 84.2669 14.4574 43.6305 C 0.0 **** 0.0
5347 C 85.0408 15.648 43.4322 C 0.0 **** 0.0
5348 C 86.1123 15.6146 42.5487 C 0.0 **** 0.0
5349 C 84.6988 16.9177 44.1344 C 0.0 **** 0.0
5350 C 83.2258 16.917 44.5501 C 0.0 **** 0.0
5351 C 82.8478 15.6503 45.2331 C 0.0 **** 0.0
5352 C 83.3326 14.4323 44.7188 C 0.0 **** 0.0
5353 C 82.2947 17.0558 43.3469 C 0.0 **** 0.0
5354 C 82.6253 18.3436 42.5337 C 0.0 **** 0.0
5355 C 84.0202 18.4217 42.1498 C 0.0 **** 0.0
5356 C 84.9403 18.2928 43.4178 C 0.0 **** 0.0
5357 C 82.7778 13.2467 45.2525 C 0.0 **** 0.0
5358 C 81.6996 13.2732 46.1794 C 0.0 **** 0.0
5359 C 81.4193 14.4702 46.8276 C 0.0 **** 0.0
5360 C 81.9529 15.6847 46.3196 C 0.0 **** 0.0
5361 C 80.4318 14.4264 47.9055 C 0.0 **** 0.0
5362 C 80.191 13.1358 48.6229 C 0.0 **** 0.0
5363 C 80.5785 11.9313 47.9978 C 0.0 **** 0.0
5364 C 81.0362 12.0037 46.6104 C 0.0 **** 0.0
5365 C 80.5485 10.6189 48.7382 C 0.0 **** 0.0
5366 C 79.3457 10.5773 49.6837 C 0.0 **** 0.0
5367 C 79.0766 11.887 50.4428 C 0.0 **** 0.0
5368 C 79.4907 13.0891 49.8596 C 0.0 **** 0.0
5369 N 79.309 14.2455 50.5545 N 0.0 **** 0.0
5370 C 78.6086 14.3092 51.7042 C 0.0 **** 0.0
5371 C 78.1885 13.1048 52.3515 C 0.0 **** 0.0
5372 C 78.398 11.878 51.6989 C 0.0 **** 0.0
5373 C 77.7616 10.6323 52.2633 C 0.0 **** 0.0
5374 C 77.1075 10.7168 53.7093 C 0.0 **** 0.0
5375 C 76.5289 12.0766 54.0 C 0.0 **** 0.0
5376 C 77.6142 13.1595 53.7417 C 0.0 **** 0.0
5377 C 77.0358 14.5346 54.1068 C 0.0 **** 0.0
5378 C 77.6484 15.7691 53.3981 C 0.0 **** 0.0
5379 C 78.3519 15.5934 52.1983 C 0.0 **** 0.0
5380 C 78.7885 16.7613 51.4985 C 0.0 **** 0.0
5381 C 78.761 18.0089 52.0452 C 0.0 **** 0.0
5382 C 78.0688 18.2068 53.2374 C 0.0 **** 0.0
5383 C 77.5394 17.0846 53.9623 C 0.0 **** 0.0
5384 C 82.6607 7.12056 38.4298 C 0.0 **** 0.0
5385 C 81.8092 7.74541 37.3646 C 0.0 **** 0.0
5386 C 85.2851 6.63716 37.0933 C 0.0 **** 0.0
5387 C 82.6494 8.87632 40.8129 C 0.0 **** 0.0
5388 C 87.4235 8.66951 37.4595 C 0.0 **** 0.0
5389 C 88.6278 13.4094 38.7892 C 0.0 **** 0.0
5390 C 87.6581 15.977 40.0734 C 0.0 **** 0.0
5391 O 87.0773 16.6122 42.6792 O 0.0 **** 0.0
5392 C 84.3484 19.7332 41.3549 C 0.0 **** 0.0
5393 C 82.0594 19.6009 43.3248 C 0.0 **** 0.0
5394 O 81.5771 16.875 46.9799 O 0.0 **** 0.0
5395 O 83.4746 12.0155 45.0788 O 0.0 **** 0.0
5396 O 80.6261 11.1966 45.7925 O 0.0 **** 0.0
5397 O 79.8674 15.4584 48.2571 O 0.0 **** 0.0
5398 C 77.0541 17.2012 55.3801 C 0.0 **** 0.0
5399 C 77.7876 19.6618 53.6645 C 0.0 **** 0.0
5400 H 83.6411 11.546 40.691 H 0.0 **** 0.0
5401 H 84.6196 10.6922 41.9873 H 0.0 **** 0.0
5402 H 87.8679 10.5709 39.5017 H 0.0 **** 0.0
5403 H 87.1331 11.3075 38.1165 H 0.0 **** 0.0
5404 H 83.6745 12.5903 42.7815 H 0.0 **** 0.0
5405 H 82.3743 16.1798 42.6758 H 0.0 **** 0.0
5406 H 81.2531 17.0937 43.7212 H 0.0 **** 0.0
5407 H 82.0518 18.3225 41.5861 H 0.0 **** 0.0
5408 H 84.2917 17.5261 41.436 H 0.0 **** 0.0
5409 H 84.7006 19.0526 44.1769 H 0.0 **** 0.0
5410 H 85.9383 18.4179 43.0087 H 0.0 **** 0.0
5411 H 80.5569 9.7811 48.0564 H 0.0 **** 0.0
5412 H 81.4733 10.5675 49.3622 H 0.0 **** 0.0
5413 H 79.5453 9.72022 50.365 H 0.0 **** 0.0
5414 H 78.4394 10.3285 49.1397 H 0.0 **** 0.0
5415 H 77.0142 10.252 51.5305 H 0.0 **** 0.0
5416 H 78.4938 9.7897 52.3215 H 0.0 **** 0.0
5417 H 77.8137 10.4076 54.4688 H 0.0 **** 0.0
5418 H 76.2479 10.0112 53.7466 H 0.0 **** 0.0
5419 H 76.1915 12.1089 55.0885 H 0.0 **** 0.0
5420 H 75.6061 12.2543 53.3233 H 0.0 **** 0.0
5421 H 78.5311 12.9385 54.3771 H 0.0 **** 0.0
5422 H 75.9921 14.553 53.8579 H 0.0 **** 0.0
5423 H 77.1237 14.6006 55.2361 H 0.0 **** 0.0
5424 H 79.3324 16.7182 50.5593 H 0.0 **** 0.0
5425 H 79.1273 18.8329 51.4784 H 0.0 **** 0.0
5426 H 82.0374 6.94769 39.2861 H 0.0 **** 0.0
5427 H 82.9872 6.14136 38.051 H 0.0 **** 0.0
5428 H 82.4604 7.88672 36.4834 H 0.0 **** 0.0
5429 H 81.4453 8.7588 37.6746 H 0.0 **** 0.0
5430 H 80.9907 7.09375 37.0641 H 0.0 **** 0.0
5431 H 85.5436 5.67683 37.5919 H 0.0 **** 0.0
5432 H 86.1289 6.84598 36.3719 H 0.0 **** 0.0
5433 H 84.4003 6.45749 36.4542 H 0.0 **** 0.0
5434 H 82.6201 9.61672 41.6303 H 0.0 **** 0.0
5435 H 82.6319 7.91116 41.3576 H 0.0 **** 0.0
5436 H 81.7587 8.98783 40.2274 H 0.0 **** 0.0
5437 H 87.8736 7.65046 37.5255 H 0.0 **** 0.0
5438 H 88.2039 9.38273 37.6739 H 0.0 **** 0.0
5439 H 87.152 8.83098 36.4214 H 0.0 **** 0.0
5440 H 89.2486 14.3648 38.8842 H 0.0 **** 0.0
5441 H 88.282 13.3914 37.7281 H 0.0 **** 0.0
5442 H 89.2736 12.5018 38.8984 H 0.0 **** 0.0
5443 H 86.8898 16.7811 40.1796 H 0.0 **** 0.0
5444 H 87.8566 15.9644 38.983 H 0.0 **** 0.0
5445 H 88.5653 16.2768 40.594 H 0.0 **** 0.0
5446 H 87.1847 16.9493 43.6309 H 0.0 **** 0.0
5447 H 83.9305 19.6862 40.2958 H 0.0 **** 0.0
5448 H 85.4236 19.7385 41.3061 H 0.0 **** 0.0
5449 H 83.9617 20.6022 41.8484 H 0.0 **** 0.0
5450 H 81.043 19.436 43.7035 H 0.0 **** 0.0
5451 H 81.9111 20.512 42.6825 H 0.0 **** 0.0
5452 H 82.6335 19.7728 44.236 H 0.0 **** 0.0
5453 H 82.1184 17.6862 46.8538 H 0.0 **** 0.0
5454 H 83.0082 11.1686 45.3755 H 0.0 **** 0.0
5455 H 76.01 16.7716 55.5111 H 0.0 **** 0.0
5456 H 76.9217 18.2801 55.7201 H 0.0 **** 0.0
5457 H 77.7826 16.7193 56.0867 H 0.0 **** 0.0
5458 H 76.6967 19.7074 53.9566 H 0.0 **** 0.0
5459 H 77.9994 20.4225 52.8639 H 0.0 **** 0.0
5460 H 78.3228 19.924 54.6014 H 0.0 **** 0.0
5461 C 44.7796 5.41436 19.5623 C 0.0 **** 0.0
5462 C 44.8164 6.78649 19.8303 C 0.0 **** 0.0
5463 C 44.7991 7.70214 18.7544 C 0.0 **** 0.0
5464 C 44.7023 7.28861 17.4144 C 0.0 **** 0.0
5465 C 44.7126 5.87128 17.1475 C 0.0 **** 0.0
5466 C 44.6591 4.92826 18.2177 C 0.0 **** 0.0
5467 C 44.4754 8.23104 16.2476 C 0.0 **** 0.0
5468 C 44.5269 9.67386 16.5403 C 0.0 **** 0.0
5469 C 44.6005 10.1281 17.8697 C 0.0 **** 0.0
5470 C 44.709 9.17038 19.0402 C 0.0 **** 0.0
5471 C 44.6021 11.5548 18.0874 C 0.0 **** 0.0
5472 C 44.7369 12.4554 16.9998 C 0.0 **** 0.0
5473 C 44.5587 11.9851 15.6713 C 0.0 **** 0.0
5474 C 44.4933 10.5768 15.4088 C 0.0 **** 0.0
5475 C 44.2313 10.1223 14.0815 C 0.0 **** 0.0
5476 C 44.2845 10.9975 12.9809 C 0.0 **** 0.0
5477 C 44.5726 12.3343 13.2376 C 0.0 **** 0.0
5478 C 44.4669 12.8448 14.5618 C 0.0 **** 0.0
5479 C 44.982 13.3261 12.111 C 0.0 **** 0.0
5480 C 45.3193 12.5664 10.81 C 0.0 **** 0.0
5481 C 44.5154 11.312 10.5668 C 0.0 **** 0.0
5482 C 44.0542 10.5082 11.6364 C 0.0 **** 0.0
5483 C 46.8257 12.3682 10.4945 C 0.0 **** 0.0
5484 C 47.6147 12.1395 11.7796 C 0.0 **** 0.0
5485 C 47.4782 13.2866 12.7248 C 0.0 **** 0.0
5486 C 46.2284 14.1368 12.4721 C 0.0 **** 0.0
5487 C 43.3673 9.30844 11.3138 C 0.0 **** 0.0
5488 C 43.3108 8.83998 9.9974 C 0.0 **** 0.0
5489 C 43.7408 9.67179 8.93034 C 0.0 **** 0.0
5490 C 44.337 10.9006 9.25635 C 0.0 **** 0.0
5491 C 43.2481 9.36056 7.53964 C 0.0 **** 0.0
5492 C 42.9619 7.95698 7.14718 C 0.0 **** 0.0
5493 C 42.7195 7.0784 8.16676 C 0.0 **** 0.0
5494 C 42.737 7.4884 9.63317 C 0.0 **** 0.0
5495 C 42.3003 5.66238 7.78926 C 0.0 **** 0.0
5496 C 43.0291 5.22482 6.5059 C 0.0 **** 0.0
5497 C 42.8464 6.22257 5.42084 C 0.0 **** 0.0
5498 C 42.8672 7.58141 5.75588 C 0.0 **** 0.0
5499 N 42.9257 8.50811 4.77028 N 0.0 **** 0.0
5500 C 43.0471 8.20396 3.45198 C 0.0 **** 0.0
5501 C 43.0752 6.83453 3.05989 C 0.0 **** 0.0
5502 C 42.936 5.83915 4.05475 C 0.0 **** 0.0
5503 C 42.8901 4.40015 3.61484 C 0.0 **** 0.0
5504 C 42.6146 4.16591 2.12613 C 0.0 **** 0.0
5505 C 43.5238 5.12551 1.30955 C 0.0 **** 0.0
5506 C 43.1646 6.58704 1.61328 C 0.0 **** 0.0
5507 C 44.1226 7.55121 0.91401 C 0.0 **** 0.0
5508 C 44.0393 8.99298 1.345 C 0.0 **** 0.0
5509 C 43.3374 9.25029 2.56156 C 0.0 **** 0.0
5510 C 43.0905 10.5899 2.93262 C 0.0 **** 0.0
5511 C 43.7164 11.5999 2.20911 C 0.0 **** 0.0
5512 C 44.512 11.3668 1.11849 C 0.0 **** 0.0
5513 C 44.6909 10.0397 0.66664 C 0.0 **** 0.0
5514 C 44.5948 3.44101 17.9088 C 0.0 **** 0.0
5515 C 45.9751 2.78 17.9647 C 0.0 **** 0.0
5516 C 45.0521 4.46348 20.7436 C 0.0 **** 0.0
5517 C 45.0177 5.45915 15.7303 C 0.0 **** 0.0
5518 C 44.9524 7.22654 21.2625 C 0.0 **** 0.0
5519 C 44.6528 12.1414 19.51 C 0.0 **** 0.0
5520 C 45.0828 13.9033 17.2812 C 0.0 **** 0.0
5521 O 44.1846 14.1809 14.7702 O 0.0 **** 0.0
5522 C 48.732 14.1496 12.8835 C 0.0 **** 0.0
5523 C 49.0582 11.7106 11.4653 C 0.0 **** 0.0
5524 O 44.9845 11.6491 8.2238 O 0.0 **** 0.0
5525 O 42.6339 8.68285 12.3077 O 0.0 **** 0.0
5526 O 42.2184 6.79145 10.4473 O 0.0 **** 0.0
5527 O 43.0254 10.3145 6.76507 O 0.0 **** 0.0
5528 C 45.6157 9.76623 -0.533432 C 0.0 **** 0.0
5529 C 45.3257 12.5443 0.594909 C 0.0 **** 0.0
5530 H 45.2887 8.0113 15.5159 H 0.0 **** 0.0
5531 H 43.4105 8.0489 15.9451 H 0.0 **** 0.0
5532 H 43.7381 9.29744 19.6057 H 0.0 **** 0.0
5533 H 45.5968 9.4566 19.5982 H 0.0 **** 0.0
5534 H 44.2304 9.04604 13.945 H 0.0 **** 0.0
5535 H 47.0396 11.5398 9.77719 H 0.0 **** 0.0
5536 H 47.2723 13.2844 9.97114 H 0.0 **** 0.0
5537 H 47.1839 11.2368 12.2582 H 0.0 **** 0.0
5538 H 47.409 12.8148 13.7719 H 0.0 **** 0.0
5539 H 46.3835 14.7878 11.6298 H 0.0 **** 0.0
5540 H 46.0503 14.7196 13.3724 H 0.0 **** 0.0
5541 H 42.5882 4.93283 8.59299 H 0.0 **** 0.0
5542 H 41.1991 5.64848 7.65118 H 0.0 **** 0.0
5543 H 42.5871 4.26046 6.20693 H 0.0 **** 0.0
5544 H 44.1601 5.07108 6.70916 H 0.0 **** 0.0
5545 H 43.7947 3.83975 3.92472 H 0.0 **** 0.0
5546 H 42.0434 3.80302 4.12852 H 0.0 **** 0.0
5547 H 41.537 4.35792 1.8645 H 0.0 **** 0.0
5548 H 42.9348 3.09513 1.90882 H 0.0 **** 0.0
5549 H 43.4403 4.83463 0.221219 H 0.0 **** 0.0
5550 H 44.5574 4.95777 1.71821 H 0.0 **** 0.0
5551 H 42.131 6.73849 1.18963 H 0.0 **** 0.0
5552 H 45.121 7.12241 0.995277 H 0.0 **** 0.0
5553 H 43.8887 7.55416 -0.186107 H 0.0 **** 0.0
5554 H 42.4815 10.8433 3.81295 H 0.0 **** 0.0
5555 H 43.5999 12.5539 2.68363 H 0.0 **** 0.0
5556 H 44.0417 3.18544 16.973 H 0.0 **** 0.0
5557 H 43.9309 2.99343 18.679 H 0.0 **** 0.0
5558 H 46.474 2.99685 18.9501 H 0.0 **** 0.0
5559 H 46.5603 3.23705 17.1846 H 0.0 **** 0.0
5560 H 45.8917 1.68388 17.6578 H 0.0 **** 0.0
5561 H 46.1174 4.42904 21.0886 H 0.0 **** 0.0
5562 H 44.8729 3.36534 20.5265 H 0.0 **** 0.0
5563 H 44.313 4.68709 21.5616 H 0.0 **** 0.0
5564 H 45.9462 5.92215 15.3752 H 0.0 **** 0.0
5565 H 44.18 5.82376 15.075 H 0.0 **** 0.0
5566 H 45.2096 4.3798 15.5517 H 0.0 **** 0.0
5567 H 45.1148 8.32689 21.4115 H 0.0 **** 0.0
5568 H 45.8331 6.71895 21.6883 H 0.0 **** 0.0
5569 H 44.1417 6.95552 21.929 H 0.0 **** 0.0
5570 H 44.1217 13.1037 19.6112 H 0.0 **** 0.0
5571 H 45.7263 12.2451 19.8318 H 0.0 **** 0.0
5572 H 44.1648 11.495 20.2673 H 0.0 **** 0.0
5573 H 45.7824 14.2065 16.5191 H 0.0 **** 0.0
5574 H 45.6505 14.0193 18.251 H 0.0 **** 0.0
5575 H 44.1669 14.4694 17.2533 H 0.0 **** 0.0
5576 H 43.6278 14.6572 14.032 H 0.0 **** 0.0
5577 H 49.6192 13.5728 13.2685 H 0.0 **** 0.0
5578 H 48.5464 14.9459 13.5899 H 0.0 **** 0.0
5579 H 48.9525 14.5863 11.8608 H 0.0 **** 0.0
5580 H 49.055 10.7602 10.9509 H 0.0 **** 0.0
5581 H 49.6309 11.7167 12.4246 H 0.0 **** 0.0
5582 H 49.5758 12.4584 10.8516 H 0.0 **** 0.0
5583 H 45.1333 11.1355 7.35826 H 0.0 **** 0.0
5584 H 42.8618 7.7237 12.5059 H 0.0 **** 0.0
5585 H 45.6849 8.68977 -0.760431 H 0.0 **** 0.0
5586 H 46.6689 10.0738 -0.27591 H 0.0 **** 0.0
5587 H 45.2391 10.3174 -1.3668 H 0.0 **** 0.0
5588 H 46.4451 12.3044 0.631441 H 0.0 **** 0.0
5589 H 45.1541 13.4467 1.20571 H 0.0 **** 0.0
5590 H 45.0395 12.8291 -0.456841 H 0.0 **** 0.0
5591 C 85.1759 22.6116 97.2689 C 0.0 **** 0.0
5592 C 83.8715 22.9572 97.6784 C 0.0 **** 0.0
5593 C 83.5828 24.2641 98.1721 C 0.0 **** 0.0
5594 C 84.6382 25.1992 98.2277 C 0.0 **** 0.0
5595 C 85.9442 24.8267 97.779 C 0.0 **** 0.0
5596 C 86.196 23.5689 97.2108 C 0.0 **** 0.0
5597 C 84.4171 26.6078 98.7306 C 0.0 **** 0.0
5598 C 83.0063 26.9868 99.2084 C 0.0 **** 0.0
5599 C 81.9535 26.0537 99.2064 C 0.0 **** 0.0
5600 C 82.1333 24.6851 98.5779 C 0.0 **** 0.0
5601 C 80.6507 26.4173 99.6387 C 0.0 **** 0.0
5602 C 80.4568 27.6653 100.309 C 0.0 **** 0.0
5603 C 81.567 28.5173 100.499 C 0.0 **** 0.0
5604 C 82.7638 28.2562 99.7842 C 0.0 **** 0.0
5605 C 83.6637 29.3825 99.5512 C 0.0 **** 0.0
5606 C 83.3747 30.6821 99.9989 C 0.0 **** 0.0
5607 C 82.4358 30.7746 101.065 C 0.0 **** 0.0
5608 C 81.5021 29.6991 101.259 C 0.0 **** 0.0
5609 C 82.6057 31.827 102.096 C 0.0 **** 0.0
5610 C 83.0636 33.2288 101.513 C 0.0 **** 0.0
5611 C 83.8078 33.1122 100.2 C 0.0 **** 0.0
5612 C 84.0752 31.869 99.5208 C 0.0 **** 0.0
5613 C 83.8826 34.0026 102.595 C 0.0 **** 0.0
5614 C 85.1283 33.2182 103.084 C 0.0 **** 0.0
5615 C 85.0577 31.7428 102.877 C 0.0 **** 0.0
5616 C 83.5772 31.2684 103.17 C 0.0 **** 0.0
5617 C 84.8602 31.8821 98.2975 C 0.0 **** 0.0
5618 C 85.4808 33.0886 97.9187 C 0.0 **** 0.0
5619 C 85.0073 34.317 98.4316 C 0.0 **** 0.0
5620 C 84.1533 34.3254 99.5351 C 0.0 **** 0.0
5621 C 85.4063 35.6362 97.7551 C 0.0 **** 0.0
5622 C 86.2844 35.6507 96.5811 C 0.0 **** 0.0
5623 C 86.9695 34.4335 96.3053 C 0.0 **** 0.0
5624 C 86.6047 33.1582 96.9685 C 0.0 **** 0.0
5625 C 88.0855 34.4089 95.2309 C 0.0 **** 0.0
5626 C 87.6834 35.2889 94.0441 C 0.0 **** 0.0
5627 C 87.1875 36.6199 94.4676 C 0.0 **** 0.0
5628 C 86.4852 36.7822 95.7174 C 0.0 **** 0.0
5629 N 85.8829 37.9871 95.9475 N 0.0 **** 0.0
5630 C 85.9427 39.083 95.1148 C 0.0 **** 0.0
5631 C 86.7187 38.9818 93.937 C 0.0 **** 0.0
5632 C 87.3538 37.7263 93.5577 C 0.0 **** 0.0
5633 C 88.0137 37.5851 92.1915 C 0.0 **** 0.0
5634 C 87.7482 38.7302 91.2504 C 0.0 **** 0.0
5635 C 87.8251 40.0708 91.9149 C 0.0 **** 0.0
5636 C 86.7181 40.1722 93.0322 C 0.0 **** 0.0
5637 C 86.8824 41.4546 93.8693 C 0.0 **** 0.0
5638 C 85.8747 41.534 94.9919 C 0.0 **** 0.0
5639 C 85.4449 40.3567 95.5684 C 0.0 **** 0.0
5640 C 84.4414 40.4039 96.499 C 0.0 **** 0.0
5641 C 83.9261 41.6445 96.9314 C 0.0 **** 0.0
5642 C 84.4086 42.8665 96.4119 C 0.0 **** 0.0
5643 C 85.3603 42.794 95.3911 C 0.0 **** 0.0
5644 C 87.5804 23.248 96.6277 C 0.0 **** 0.0
5645 C 88.5921 22.7863 97.6868 C 0.0 **** 0.0
5646 C 85.4079 21.1788 96.823 C 0.0 **** 0.0
5647 C 87.0393 25.8495 97.8875 C 0.0 **** 0.0
5648 C 82.7048 22.0307 97.4182 C 0.0 **** 0.0
5649 C 79.4887 25.4509 99.4394 C 0.0 **** 0.0
5650 C 79.0073 28.1333 100.663 C 0.0 **** 0.0
5651 O 80.5583 29.7988 102.297 O 0.0 **** 0.0
5652 C 86.0457 30.8603 103.665 C 0.0 **** 0.0
5653 C 85.711 33.6403 104.459 C 0.0 **** 0.0
5654 O 83.6407 35.5554 99.9523 O 0.0 **** 0.0
5655 O 84.7532 30.8474 97.3712 O 0.0 **** 0.0
5656 O 87.2971 32.1602 96.7565 O 0.0 **** 0.0
5657 O 85.0212 36.6722 98.2358 O 0.0 **** 0.0
5658 C 85.9718 44.0763 94.8244 C 0.0 **** 0.0
5659 C 83.8688 44.1101 97.0484 C 0.0 **** 0.0
5660 H 85.0749 26.6287 99.6361 H 0.0 **** 0.0
5661 H 84.7822 27.3427 97.9792 H 0.0 **** 0.0
5662 H 81.4901 24.5762 97.7069 H 0.0 **** 0.0
5663 H 81.8134 23.9558 99.2776 H 0.0 **** 0.0
5664 H 84.6091 29.2245 98.9921 H 0.0 **** 0.0
5665 H 84.1713 34.9928 102.288 H 0.0 **** 0.0
5666 H 83.2544 34.1854 103.497 H 0.0 **** 0.0
5667 H 85.9425 33.5875 102.395 H 0.0 **** 0.0
5668 H 85.3345 31.5346 101.836 H 0.0 **** 0.0
5669 H 83.2694 31.6855 104.187 H 0.0 **** 0.0
5670 H 83.5167 30.1237 103.172 H 0.0 **** 0.0
5671 H 89.082 34.7703 95.6796 H 0.0 **** 0.0
5672 H 88.2776 33.4006 94.8049 H 0.0 **** 0.0
5673 H 86.8761 34.7272 93.5141 H 0.0 **** 0.0
5674 H 88.6274 35.3303 93.4241 H 0.0 **** 0.0
5675 H 89.1362 37.5194 92.3206 H 0.0 **** 0.0
5676 H 87.7179 36.6466 91.6758 H 0.0 **** 0.0
5677 H 86.7368 38.5955 90.853 H 0.0 **** 0.0
5678 H 88.4387 38.606 90.3266 H 0.0 **** 0.0
5679 H 87.7375 40.8696 91.1601 H 0.0 **** 0.0
5680 H 88.8705 40.1655 92.3284 H 0.0 **** 0.0
5681 H 85.7145 40.2237 92.4957 H 0.0 **** 0.0
5682 H 87.8643 41.5711 94.2591 H 0.0 **** 0.0
5683 H 86.7756 42.2579 93.1716 H 0.0 **** 0.0
5684 H 84.0219 39.4848 96.9232 H 0.0 **** 0.0
5685 H 83.1214 41.5721 97.6241 H 0.0 **** 0.0
5686 H 87.9689 24.0985 96.0513 H 0.0 **** 0.0
5687 H 87.4834 22.4456 95.9207 H 0.0 **** 0.0
5688 H 88.3179 21.7809 98.0624 H 0.0 **** 0.0
5689 H 88.8031 23.4695 98.5302 H 0.0 **** 0.0
5690 H 89.5784 22.672 97.161 H 0.0 **** 0.0
5691 H 84.9007 20.4962 97.5566 H 0.0 **** 0.0
5692 H 86.4969 20.9098 96.9184 H 0.0 **** 0.0
5693 H 85.1374 21.0588 95.7669 H 0.0 **** 0.0
5694 H 86.8485 26.73 97.3081 H 0.0 **** 0.0
5695 H 88.0302 25.4365 97.729 H 0.0 **** 0.0
5696 H 87.0748 26.1838 98.8886 H 0.0 **** 0.0
5697 H 82.9476 21.1356 96.8547 H 0.0 **** 0.0
5698 H 81.9405 22.5362 96.7701 H 0.0 **** 0.0
5699 H 82.1606 21.725 98.3751 H 0.0 **** 0.0
5700 H 79.7198 24.599 100.058 H 0.0 **** 0.0
5701 H 79.438 25.0282 98.3809 H 0.0 **** 0.0
5702 H 78.4769 25.7555 99.768 H 0.0 **** 0.0
5703 H 78.2923 28.0037 99.8313 H 0.0 **** 0.0
5704 H 78.9881 29.2193 100.796 H 0.0 **** 0.0
5705 H 78.6926 27.7341 101.64 H 0.0 **** 0.0
5706 H 80.4296 30.6596 102.743 H 0.0 **** 0.0
5707 H 87.0664 31.2953 103.511 H 0.0 **** 0.0
5708 H 86.1022 29.8449 103.237 H 0.0 **** 0.0
5709 H 85.8003 30.8991 104.735 H 0.0 **** 0.0
5710 H 85.7925 34.7432 104.457 H 0.0 **** 0.0
5711 H 86.7398 33.2562 104.571 H 0.0 **** 0.0
5712 H 85.08 33.2178 105.195 H 0.0 **** 0.0
5713 H 82.9711 35.9736 99.2586 H 0.0 **** 0.0
5714 H 84.8998 31.1695 96.4083 H 0.0 **** 0.0
5715 H 87.0588 44.1136 95.0857 H 0.0 **** 0.0
5716 H 85.5152 44.9723 95.2624 H 0.0 **** 0.0
5717 H 85.8581 44.1544 93.7038 H 0.0 **** 0.0
5718 H 84.7249 44.6719 97.4522 H 0.0 **** 0.0
5719 H 83.0947 43.9602 97.8202 H 0.0 **** 0.0
5720 H 83.4072 44.8178 96.2975 H 0.0 **** 0.0
5721 C 40.652 27.0488 28.4478 C 0.0 **** 0.0
5722 C 39.2806 26.7537 28.3387 C 0.0 **** 0.0
5723 C 38.5527 26.4027 29.5192 C 0.0 **** 0.0
5724 C 39.1995 26.02 30.6945 C 0.0 **** 0.0
5725 C 40.6092 26.1724 30.7951 C 0.0 **** 0.0
5726 C 41.3537 26.7059 29.6686 C 0.0 **** 0.0
5727 C 38.409 25.686 31.9606 C 0.0 **** 0.0
5728 C 36.8916 25.8628 31.9523 C 0.0 **** 0.0
5729 C 36.2281 26.098 30.7304 C 0.0 **** 0.0
5730 C 37.0401 26.4626 29.4608 C 0.0 **** 0.0
5731 C 34.8076 25.9336 30.6939 C 0.0 **** 0.0
5732 C 34.05 25.6116 31.8502 C 0.0 **** 0.0
5733 C 34.7152 25.564 33.1306 C 0.0 **** 0.0
5734 C 36.1422 25.6104 33.1635 C 0.0 **** 0.0
5735 C 36.8112 25.2541 34.3384 C 0.0 **** 0.0
5736 C 36.1225 25.2607 35.6003 C 0.0 **** 0.0
5737 C 34.7009 25.2014 35.5574 C 0.0 **** 0.0
5738 C 34.0018 25.3387 34.3532 C 0.0 **** 0.0
5739 C 33.9978 24.5897 36.7501 C 0.0 **** 0.0
5740 C 34.5115 25.1854 38.0712 C 0.0 **** 0.0
5741 C 36.0513 25.3351 38.1064 C 0.0 **** 0.0
5742 C 36.7835 25.2698 36.8825 C 0.0 **** 0.0
5743 C 33.8138 24.4364 39.2799 C 0.0 **** 0.0
5744 C 33.9774 22.9324 39.1273 C 0.0 **** 0.0
5745 C 33.4093 22.3929 37.8679 C 0.0 **** 0.0
5746 C 34.1695 23.0491 36.6802 C 0.0 **** 0.0
5747 C 38.2355 25.3256 36.9669 C 0.0 **** 0.0
5748 C 38.8169 25.0715 38.1999 C 0.0 **** 0.0
5749 C 38.1459 25.4001 39.3699 C 0.0 **** 0.0
5750 C 36.7536 25.6867 39.2848 C 0.0 **** 0.0
5751 C 38.9225 25.3477 40.6061 C 0.0 **** 0.0
5752 C 40.1642 24.4871 40.7348 C 0.0 **** 0.0
5753 C 40.7911 24.046 39.5268 C 0.0 **** 0.0
5754 C 40.1196 24.3297 38.2399 C 0.0 **** 0.0
5755 C 42.1044 23.3298 39.6359 C 0.0 **** 0.0
5756 C 42.0468 22.3186 40.7329 C 0.0 **** 0.0
5757 C 41.4953 22.8801 42.0371 C 0.0 **** 0.0
5758 C 40.5761 23.9685 41.982 C 0.0 **** 0.0
5759 N 40.146 24.5247 43.1462 N 0.0 **** 0.0
5760 C 40.4655 24.0572 44.3453 C 0.0 **** 0.0
5761 C 41.2199 22.8972 44.4561 C 0.0 **** 0.0
5762 C 41.7957 22.3214 43.3101 C 0.0 **** 0.0
5763 C 42.6625 21.0766 43.3822 C 0.0 **** 0.0
5764 C 42.9631 20.5708 44.8426 C 0.0 **** 0.0
5765 C 41.8218 20.8418 45.78 C 0.0 **** 0.0
5766 C 41.515 22.3148 45.8475 C 0.0 **** 0.0
5767 C 40.3808 22.6261 46.8363 C 0.0 **** 0.0
5768 C 40.0217 24.0845 46.7533 C 0.0 **** 0.0
5769 C 39.9736 24.6987 45.461 C 0.0 **** 0.0
5770 C 39.3937 25.9852 45.3609 C 0.0 **** 0.0
5771 C 39.1989 26.7592 46.4502 C 0.0 **** 0.0
5772 C 39.4357 26.2336 47.768 C 0.0 **** 0.0
5773 C 39.8075 24.8583 47.9272 C 0.0 **** 0.0
5774 C 42.8703 26.8451 29.7153 C 0.0 **** 0.0
5775 C 43.5982 25.6396 29.1412 C 0.0 **** 0.0
5776 C 41.2848 27.8273 27.3421 C 0.0 **** 0.0
5777 C 41.3788 25.5883 31.9834 C 0.0 **** 0.0
5778 C 38.558 27.0435 27.0231 C 0.0 **** 0.0
5779 C 34.0899 26.0951 29.3356 C 0.0 **** 0.0
5780 C 32.5898 25.0968 31.6696 C 0.0 **** 0.0
5781 O 32.6047 25.2721 34.3629 O 0.0 **** 0.0
5782 C 31.9117 22.5412 37.6918 C 0.0 **** 0.0
5783 C 33.4371 22.1099 40.3587 C 0.0 **** 0.0
5784 O 36.0369 26.2344 40.34 O 0.0 **** 0.0
5785 O 39.024 25.7898 35.9019 O 0.0 **** 0.0
5786 O 40.5836 23.884 37.2189 O 0.0 **** 0.0
5787 O 38.5662 25.9752 41.5615 O 0.0 **** 0.0
5788 C 40.0624 24.2347 49.3232 C 0.0 **** 0.0
5789 C 39.3498 27.2185 48.862 C 0.0 **** 0.0
5790 H 38.6693 24.6433 32.2319 H 0.0 **** 0.0
5791 H 38.7828 26.3132 32.8187 H 0.0 **** 0.0
5792 H 36.8041 27.5307 29.1489 H 0.0 **** 0.0
5793 H 36.7459 25.716 28.6786 H 0.0 **** 0.0
5794 H 37.8666 25.0304 34.2912 H 0.0 **** 0.0
5795 H 34.2355 24.7234 40.2414 H 0.0 **** 0.0
5796 H 32.7086 24.6775 39.3472 H 0.0 **** 0.0
5797 H 35.0746 22.7606 39.0781 H 0.0 **** 0.0
5798 H 33.7417 21.3014 37.8251 H 0.0 **** 0.0
5799 H 33.6965 22.6746 35.6828 H 0.0 **** 0.0
5800 H 35.2446 22.7377 36.6681 H 0.0 **** 0.0
5801 H 42.3914 22.8574 38.6937 H 0.0 **** 0.0
5802 H 42.9205 24.0384 39.8757 H 0.0 **** 0.0
5803 H 43.0439 21.8941 40.8883 H 0.0 **** 0.0
5804 H 41.3002 21.5477 40.415 H 0.0 **** 0.0
5805 H 42.0693 20.2792 42.8425 H 0.0 **** 0.0
5806 H 43.6279 21.2357 42.8765 H 0.0 **** 0.0
5807 H 43.8795 21.1243 45.2061 H 0.0 **** 0.0
5808 H 43.229 19.4883 44.8221 H 0.0 **** 0.0
5809 H 42.0807 20.436 46.7734 H 0.0 **** 0.0
5810 H 40.8958 20.227 45.3755 H 0.0 **** 0.0
5811 H 42.4484 22.8339 46.229 H 0.0 **** 0.0
5812 H 39.4949 22.1117 46.4899 H 0.0 **** 0.0
5813 H 40.6307 22.2644 47.8364 H 0.0 **** 0.0
5814 H 39.1746 26.4262 44.4072 H 0.0 **** 0.0
5815 H 38.7688 27.768 46.3061 H 0.0 **** 0.0
5816 H 43.1693 27.0041 30.7494 H 0.0 **** 0.0
5817 H 43.269 27.7168 29.2773 H 0.0 **** 0.0
5818 H 43.2818 24.722 29.6747 H 0.0 **** 0.0
5819 H 44.6652 25.7591 29.3557 H 0.0 **** 0.0
5820 H 43.4351 25.4723 28.0133 H 0.0 **** 0.0
5821 H 41.4088 27.1954 26.4313 H 0.0 **** 0.0
5822 H 42.2617 28.1936 27.6033 H 0.0 **** 0.0
5823 H 40.7557 28.7702 27.18 H 0.0 **** 0.0
5824 H 40.7606 25.1784 32.8237 H 0.0 **** 0.0
5825 H 41.9908 26.4053 32.5262 H 0.0 **** 0.0
5826 H 42.0822 24.8005 31.5114 H 0.0 **** 0.0
5827 H 37.9771 28.0039 27.0971 H 0.0 **** 0.0
5828 H 37.8344 26.2586 26.7163 H 0.0 **** 0.0
5829 H 39.1768 27.1436 26.1232 H 0.0 **** 0.0
5830 H 33.0622 26.4245 29.4927 H 0.0 **** 0.0
5831 H 34.1975 25.1922 28.7091 H 0.0 **** 0.0
5832 H 34.5824 26.9496 28.8104 H 0.0 **** 0.0
5833 H 32.4803 24.212 32.3218 H 0.0 **** 0.0
5834 H 32.3058 24.7889 30.6568 H 0.0 **** 0.0
5835 H 31.866 25.8802 31.9667 H 0.0 **** 0.0
5836 H 32.1686 25.4354 35.254 H 0.0 **** 0.0
5837 H 31.4234 22.201 38.6334 H 0.0 **** 0.0
5838 H 31.606 22.0341 36.7424 H 0.0 **** 0.0
5839 H 31.6603 23.5937 37.4933 H 0.0 **** 0.0
5840 H 34.0795 22.3725 41.2456 H 0.0 **** 0.0
5841 H 33.5334 20.9998 40.2306 H 0.0 **** 0.0
5842 H 32.4185 22.4402 40.7397 H 0.0 **** 0.0
5843 H 36.4009 26.3331 41.2683 H 0.0 **** 0.0
5844 H 39.659 26.5436 36.2116 H 0.0 **** 0.0
5845 H 39.4443 23.2478 49.4348 H 0.0 **** 0.0
5846 H 41.1583 24.0374 49.4465 H 0.0 **** 0.0
5847 H 39.7891 24.9614 50.1274 H 0.0 **** 0.0
5848 H 38.5857 26.9311 49.6004 H 0.0 **** 0.0
5849 H 39.0733 28.2546 48.4839 H 0.0 **** 0.0
5850 H 40.3562 27.3208 49.3528 H 0.0 **** 0.0
5851 C 53.1634 113.507 100.33 C 0.0 **** 0.0
5852 C 54.3136 113.082 99.6018 C 0.0 **** 0.0
5853 C 54.5996 111.705 99.4986 C 0.0 **** 0.0
5854 C 53.7909 110.733 100.104 C 0.0 **** 0.0
5855 C 52.6403 111.124 100.83 C 0.0 **** 0.0
5856 C 52.2617 112.519 100.888 C 0.0 **** 0.0
5857 C 54.1057 109.251 100.022 C 0.0 **** 0.0
5858 C 55.3375 108.863 99.1405 C 0.0 **** 0.0
5859 C 56.1047 109.86 98.4864 C 0.0 **** 0.0
5860 C 55.8626 111.306 98.7673 C 0.0 **** 0.0
5861 C 57.1961 109.472 97.6096 C 0.0 **** 0.0
5862 C 57.3463 108.105 97.2378 C 0.0 **** 0.0
5863 C 56.5363 107.111 97.8823 C 0.0 **** 0.0
5864 C 55.5889 107.503 98.8782 C 0.0 **** 0.0
5865 C 54.8577 106.504 99.5475 C 0.0 **** 0.0
5866 C 55.0923 105.104 99.3621 C 0.0 **** 0.0
5867 C 56.1989 104.771 98.5473 C 0.0 **** 0.0
5868 C 56.736 105.729 97.6426 C 0.0 **** 0.0
5869 C 56.6879 103.305 98.5002 C 0.0 **** 0.0
5870 C 55.9861 102.351 99.5217 C 0.0 **** 0.0
5871 C 54.5374 102.75 99.7234 C 0.0 **** 0.0
5872 C 54.139 104.087 99.7784 C 0.0 **** 0.0
5873 C 56.7664 102.095 100.821 C 0.0 **** 0.0
5874 C 57.8072 103.206 101.113 C 0.0 **** 0.0
5875 C 58.8056 103.328 100.046 C 0.0 **** 0.0
5876 C 58.1958 103.118 98.6176 C 0.0 **** 0.0
5877 C 52.7469 104.351 100.058 C 0.0 **** 0.0
5878 C 51.8214 103.281 100.207 C 0.0 **** 0.0
5879 C 52.2897 101.946 100.256 C 0.0 **** 0.0
5880 C 53.655 101.709 99.9701 C 0.0 **** 0.0
5881 C 51.3815 100.834 100.679 C 0.0 **** 0.0
5882 C 49.8923 101.016 100.49 C 0.0 **** 0.0
5883 C 49.4107 102.308 100.2 C 0.0 **** 0.0
5884 C 50.3187 103.473 100.262 C 0.0 **** 0.0
5885 C 47.9609 102.481 99.7954 C 0.0 **** 0.0
5886 C 46.9879 101.383 100.339 C 0.0 **** 0.0
5887 C 47.6298 100.004 100.321 C 0.0 **** 0.0
5888 C 49.0527 99.8905 100.414 C 0.0 **** 0.0
5889 N 49.5745 98.6523 100.566 N 0.0 **** 0.0
5890 C 48.8183 97.4893 100.551 C 0.0 **** 0.0
5891 C 47.4201 97.5594 100.465 C 0.0 **** 0.0
5892 C 46.8138 98.8303 100.294 C 0.0 **** 0.0
5893 C 45.2998 98.9111 100.135 C 0.0 **** 0.0
5894 C 44.522 97.5705 100.042 C 0.0 **** 0.0
5895 C 45.1697 96.5072 100.924 C 0.0 **** 0.0
5896 C 46.6151 96.2894 100.403 C 0.0 **** 0.0
5897 C 47.268 95.2417 101.298 C 0.0 **** 0.0
5898 C 48.7374 95.0764 101.049 C 0.0 **** 0.0
5899 C 49.4944 96.2456 100.711 C 0.0 **** 0.0
5900 C 50.8973 96.2032 100.694 C 0.0 **** 0.0
5901 C 51.5324 95.0462 101.004 C 0.0 **** 0.0
5902 C 50.8204 93.8334 101.209 C 0.0 **** 0.0
5903 C 49.4151 93.8349 101.29 C 0.0 **** 0.0
5904 C 50.969 113.005 101.49 C 0.0 **** 0.0
5905 C 51.2806 113.504 102.884 C 0.0 **** 0.0
5906 C 52.9547 115.004 100.496 C 0.0 **** 0.0
5907 C 51.7638 110.142 101.554 C 0.0 **** 0.0
5908 C 55.2728 114.134 99.0681 C 0.0 **** 0.0
5909 C 58.0734 110.506 96.9922 C 0.0 **** 0.0
5910 C 58.3952 107.703 96.2054 C 0.0 **** 0.0
5911 O 57.3056 105.309 96.4358 O 0.0 **** 0.0
5912 C 60.0375 102.405 100.133 C 0.0 **** 0.0
5913 C 58.3586 103.061 102.545 C 0.0 **** 0.0
5914 O 54.1773 100.398 99.761 O 0.0 **** 0.0
5915 O 52.2631 105.681 100.089 O 0.0 **** 0.0
5916 O 49.8649 104.593 100.136 O 0.0 **** 0.0
5917 O 51.8044 99.8261 101.209 O 0.0 **** 0.0
5918 C 48.5767 92.6703 101.707 C 0.0 **** 0.0
5919 C 51.5742 92.5593 101.378 C 0.0 **** 0.0
5920 H 54.2684 108.922 101.047 H 0.0 **** 0.0
5921 H 53.2086 108.743 99.6633 H 0.0 **** 0.0
5922 H 55.7587 111.739 97.779 H 0.0 **** 0.0
5923 H 56.739 111.623 99.3643 H 0.0 **** 0.0
5924 H 54.2372 106.782 100.407 H 0.0 **** 0.0
5925 H 56.0691 101.843 101.659 H 0.0 **** 0.0
5926 H 57.4019 101.156 100.738 H 0.0 **** 0.0
5927 H 57.2462 104.186 101.108 H 0.0 **** 0.0
5928 H 59.1268 104.365 100.036 H 0.0 **** 0.0
5929 H 58.3924 102.078 98.2721 H 0.0 **** 0.0
5930 H 58.8519 103.714 97.9428 H 0.0 **** 0.0
5931 H 47.605 103.519 100.077 H 0.0 **** 0.0
5932 H 47.9041 102.427 98.647 H 0.0 **** 0.0
5933 H 46.0997 101.411 99.6582 H 0.0 **** 0.0
5934 H 46.7767 101.693 101.39 H 0.0 **** 0.0
5935 H 44.8878 99.5889 100.935 H 0.0 **** 0.0
5936 H 45.0332 99.4553 99.2019 H 0.0 **** 0.0
5937 H 44.5139 97.1677 98.997 H 0.0 **** 0.0
5938 H 43.4616 97.6856 100.369 H 0.0 **** 0.0
5939 H 44.6156 95.5744 100.809 H 0.0 **** 0.0
5940 H 45.1977 96.8278 102.019 H 0.0 **** 0.0
5941 H 46.6389 95.9748 99.3354 H 0.0 **** 0.0
5942 H 47.1814 95.5629 102.356 H 0.0 **** 0.0
5943 H 46.6961 94.2999 101.128 H 0.0 **** 0.0
5944 H 51.5187 97.0937 100.562 H 0.0 **** 0.0
5945 H 52.622 95.0908 101.117 H 0.0 **** 0.0
5946 H 50.1827 112.203 101.58 H 0.0 **** 0.0
5947 H 50.4631 113.795 100.867 H 0.0 **** 0.0
5948 H 51.822 114.458 102.893 H 0.0 **** 0.0
5949 H 51.8041 112.73 103.455 H 0.0 **** 0.0
5950 H 50.3365 113.668 103.476 H 0.0 **** 0.0
5951 H 53.5815 115.378 101.348 H 0.0 **** 0.0
5952 H 51.8861 115.338 100.708 H 0.0 **** 0.0
5953 H 53.2494 115.637 99.6054 H 0.0 **** 0.0
5954 H 52.2473 109.179 101.822 H 0.0 **** 0.0
5955 H 50.899 109.922 100.95 H 0.0 **** 0.0
5956 H 51.4984 110.578 102.539 H 0.0 **** 0.0
5957 H 56.173 113.75 98.5432 H 0.0 **** 0.0
5958 H 55.6305 114.746 99.8767 H 0.0 **** 0.0
5959 H 54.8042 114.837 98.3225 H 0.0 **** 0.0
5960 H 57.9019 110.5 95.871 H 0.0 **** 0.0
5961 H 59.1019 110.238 97.351 H 0.0 **** 0.0
5962 H 57.8909 111.532 97.2883 H 0.0 **** 0.0
5963 H 59.1149 106.99 96.6691 H 0.0 **** 0.0
5964 H 59.0043 108.514 95.7738 H 0.0 **** 0.0
5965 H 57.9294 107.376 95.2598 H 0.0 **** 0.0
5966 H 57.227 104.333 96.2051 H 0.0 **** 0.0
5967 H 60.6189 102.573 101.074 H 0.0 **** 0.0
5968 H 60.643 102.497 99.2462 H 0.0 **** 0.0
5969 H 59.6892 101.348 100.2 H 0.0 **** 0.0
5970 H 57.5227 103.193 103.253 H 0.0 **** 0.0
5971 H 59.0092 103.918 102.77 H 0.0 **** 0.0
5972 H 58.9742 102.145 102.648 H 0.0 **** 0.0
5973 H 53.479 99.7325 99.5243 H 0.0 **** 0.0
5974 H 51.6157 105.876 100.806 H 0.0 **** 0.0
5975 H 47.9815 92.8723 102.596 H 0.0 **** 0.0
5976 H 49.1867 91.7619 101.928 H 0.0 **** 0.0
5977 H 47.853 92.3414 100.968 H 0.0 **** 0.0
5978 H 51.4139 92.0644 102.355 H 0.0 **** 0.0
5979 H 52.6618 92.7391 101.349 H 0.0 **** 0.0
5980 H 51.3532 91.8872 100.545 H 0.0 **** 0.0
5981 C 28.2359 29.5851 8.75542 C 0.0 **** 0.0
5982 C 26.8215 29.574 8.9936 C 0.0 **** 0.0
5983 C 25.987 29.0837 7.98423 C 0.0 **** 0.0
5984 C 26.4717 28.7091 6.73789 C 0.0 **** 0.0
5985 C 27.8274 28.9848 6.41327 C 0.0 **** 0.0
5986 C 28.7061 29.3911 7.45262 C 0.0 **** 0.0
5987 C 25.5618 28.0169 5.75387 C 0.0 **** 0.0
5988 C 24.6096 27.0523 6.48001 C 0.0 **** 0.0
5989 C 24.1739 27.4082 7.78662 C 0.0 **** 0.0
5990 C 24.5275 28.7967 8.23833 C 0.0 **** 0.0
5991 C 23.4346 26.4824 8.58187 C 0.0 **** 0.0
5992 C 23.3891 25.1053 8.19632 C 0.0 **** 0.0
5993 C 23.8179 24.7761 6.89586 C 0.0 **** 0.0
5994 C 24.3595 25.7564 6.0285 C 0.0 **** 0.0
5995 C 24.5933 25.4727 4.67024 C 0.0 **** 0.0
5996 C 24.3034 24.2379 4.14529 C 0.0 **** 0.0
5997 C 23.7515 23.2565 4.98614 C 0.0 **** 0.0
5998 C 23.7527 23.4847 6.37824 C 0.0 **** 0.0
5999 C 22.88 22.1787 4.35856 C 0.0 **** 0.0
6000 C 22.3852 22.6565 2.94731 C 0.0 **** 0.0
6001 C 23.4313 23.2742 2.10884 C 0.0 **** 0.0
6002 C 24.4358 24.0405 2.74206 C 0.0 **** 0.0
6003 C 21.0156 23.3768 2.91705 C 0.0 **** 0.0
6004 C 20.7041 24.15 4.22928 C 0.0 **** 0.0
6005 C 20.6115 23.2268 5.37655 C 0.0 **** 0.0
6006 C 21.5855 21.9419 5.17335 C 0.0 **** 0.0
6007 C 25.4296 24.6511 1.91362 C 0.0 **** 0.0
6008 C 25.3764 24.5303 0.520615 C 0.0 **** 0.0
6009 C 24.4704 23.6148 -0.0477675 C 0.0 **** 0.0
6010 C 23.4338 23.0532 0.738177 C 0.0 **** 0.0
6011 C 24.7488 23.0911 -1.41327 C 0.0 **** 0.0
6012 C 25.4539 23.9462 -2.3642 C 0.0 **** 0.0
6013 C 26.1007 25.0926 -1.86666 C 0.0 **** 0.0
6014 C 26.1961 25.3426 -0.379578 C 0.0 **** 0.0
6015 C 26.7332 26.0503 -2.84761 C 0.0 **** 0.0
6016 C 25.9751 25.9886 -4.22591 C 0.0 **** 0.0
6017 C 25.785 24.5916 -4.718 C 0.0 **** 0.0
6018 C 25.4539 23.608 -3.72902 C 0.0 **** 0.0
6019 N 25.2497 22.308 -4.13257 N 0.0 **** 0.0
6020 C 25.3332 21.9088 -5.4244 C 0.0 **** 0.0
6021 C 25.5762 22.8807 -6.44511 C 0.0 **** 0.0
6022 C 25.785 24.2379 -6.08082 C 0.0 **** 0.0
6023 C 25.9644 25.3133 -7.16618 C 0.0 **** 0.0
6024 C 26.0943 24.7842 -8.59858 C 0.0 **** 0.0
6025 C 25.2378 23.5716 -8.86433 C 0.0 **** 0.0
6026 C 25.625 22.4382 -7.89147 C 0.0 **** 0.0
6027 C 24.8139 21.2031 -8.18725 C 0.0 **** 0.0
6028 C 24.9941 20.1448 -7.15959 C 0.0 **** 0.0
6029 C 25.1331 20.5337 -5.78334 C 0.0 **** 0.0
6030 C 24.8761 19.5506 -4.74858 C 0.0 **** 0.0
6031 C 24.5886 18.2135 -5.08926 C 0.0 **** 0.0
6032 C 24.5307 17.8281 -6.44974 C 0.0 **** 0.0
6033 C 24.7636 18.7954 -7.48002 C 0.0 **** 0.0
6034 C 30.1404 29.8309 7.1056 C 0.0 **** 0.0
6035 C 30.2491 31.3547 7.10552 C 0.0 **** 0.0
6036 C 29.2042 29.4338 9.88786 C 0.0 **** 0.0
6037 C 28.3293 28.8248 5.01369 C 0.0 **** 0.0
6038 C 26.2915 29.9914 10.3408 C 0.0 **** 0.0
6039 C 22.6315 26.9541 9.76831 C 0.0 **** 0.0
6040 C 22.8742 24.0696 9.18287 C 0.0 **** 0.0
6041 O 23.6371 22.3577 7.1734 O 0.0 **** 0.0
6042 C 19.1353 22.6874 5.57366 C 0.0 **** 0.0
6043 C 19.527 25.1211 4.0937 C 0.0 **** 0.0
6044 O 22.3615 22.3579 0.1315 O 0.0 **** 0.0
6045 O 26.6093 25.1806 2.5066 O 0.0 **** 0.0
6046 O 26.9723 26.1665 0.0977329 O 0.0 **** 0.0
6047 O 24.4925 21.9247 -1.64711 O 0.0 **** 0.0
6048 C 24.6251 18.447 -8.94304 C 0.0 **** 0.0
6049 C 24.1107 16.4404 -6.8263 C 0.0 **** 0.0
6050 H 24.9851 28.7829 5.19629 H 0.0 **** 0.0
6051 H 26.1812 27.4009 5.08266 H 0.0 **** 0.0
6052 H 24.2143 28.927 9.28982 H 0.0 **** 0.0
6053 H 23.9676 29.511 7.59974 H 0.0 **** 0.0
6054 H 24.904 26.2388 3.96298 H 0.0 **** 0.0
6055 H 20.9687 24.0367 2.05078 H 0.0 **** 0.0
6056 H 20.2347 22.6115 2.77613 H 0.0 **** 0.0
6057 H 21.5482 24.8623 4.45046 H 0.0 **** 0.0
6058 H 20.8139 23.7506 6.36341 H 0.0 **** 0.0
6059 H 21.0129 21.1143 4.67437 H 0.0 **** 0.0
6060 H 21.7969 21.4563 6.12687 H 0.0 **** 0.0
6061 H 26.616 27.0985 -2.43349 H 0.0 **** 0.0
6062 H 27.8113 25.7376 -3.04107 H 0.0 **** 0.0
6063 H 26.451 26.6966 -4.92278 H 0.0 **** 0.0
6064 H 24.9352 26.4644 -3.95222 H 0.0 **** 0.0
6065 H 25.1241 26.0271 -7.1235 H 0.0 **** 0.0
6066 H 26.8834 25.8739 -6.85127 H 0.0 **** 0.0
6067 H 27.134 24.563 -8.83182 H 0.0 **** 0.0
6068 H 25.8014 25.6162 -9.2665 H 0.0 **** 0.0
6069 H 25.416 23.2636 -9.94564 H 0.0 **** 0.0
6070 H 24.1638 23.7761 -8.77809 H 0.0 **** 0.0
6071 H 26.6986 22.1582 -8.12411 H 0.0 **** 0.0
6072 H 23.7772 21.5194 -8.14706 H 0.0 **** 0.0
6073 H 25.0583 20.8109 -9.19181 H 0.0 **** 0.0
6074 H 25.0151 19.7865 -3.69057 H 0.0 **** 0.0
6075 H 24.4042 17.4812 -4.31458 H 0.0 **** 0.0
6076 H 30.5484 29.475 6.10147 H 0.0 **** 0.0
6077 H 30.8621 29.3878 7.77476 H 0.0 **** 0.0
6078 H 29.8176 31.7244 8.06866 H 0.0 **** 0.0
6079 H 29.6663 31.7962 6.24047 H 0.0 **** 0.0
6080 H 31.2837 31.7109 6.96226 H 0.0 **** 0.0
6081 H 29.8278 30.3128 9.9835 H 0.0 **** 0.0
6082 H 29.8928 28.5765 9.67012 H 0.0 **** 0.0
6083 H 28.7721 29.2355 10.9045 H 0.0 **** 0.0
6084 H 28.832 29.7995 4.76482 H 0.0 **** 0.0
6085 H 27.6096 28.7147 4.20082 H 0.0 **** 0.0
6086 H 29.0589 28.0086 4.96467 H 0.0 **** 0.0
6087 H 25.9492 29.0959 10.9252 H 0.0 **** 0.0
6088 H 25.4364 30.6998 10.1752 H 0.0 **** 0.0
6089 H 27.0719 30.5213 10.9273 H 0.0 **** 0.0
6090 H 23.1597 26.9325 10.7544 H 0.0 **** 0.0
6091 H 21.6298 26.4117 9.78347 H 0.0 **** 0.0
6092 H 22.2437 27.9972 9.6775 H 0.0 **** 0.0
6093 H 21.8778 23.6945 8.86381 H 0.0 **** 0.0
6094 H 22.79 24.4714 10.2202 H 0.0 **** 0.0
6095 H 23.5773 23.1876 9.25996 H 0.0 **** 0.0
6096 H 23.92 21.5405 6.72069 H 0.0 **** 0.0
6097 H 18.4267 23.3977 6.08052 H 0.0 **** 0.0
6098 H 19.1334 21.8006 6.19879 H 0.0 **** 0.0
6099 H 18.693 22.3601 4.59138 H 0.0 **** 0.0
6100 H 19.7155 25.8526 3.26306 H 0.0 **** 0.0
6101 H 19.4868 25.7049 5.01751 H 0.0 **** 0.0
6102 H 18.5809 24.6083 3.93214 H 0.0 **** 0.0
6103 H 22.2465 22.5175 -0.893483 H 0.0 **** 0.0
6104 H 26.8366 24.8543 3.45589 H 0.0 **** 0.0
6105 H 23.7834 18.9555 -9.39892 H 0.0 **** 0.0
6106 H 24.5516 17.3553 -9.1378 H 0.0 **** 0.0
6107 H 25.5564 18.7087 -9.49248 H 0.0 **** 0.0
6108 H 23.1948 16.4128 -7.40338 H 0.0 **** 0.0
6109 H 23.8936 15.8877 -5.90441 H 0.0 **** 0.0
6110 H 24.9618 15.9635 -7.41191 H 0.0 **** 0.0
6111 C 75.8322 45.307 65.8205 C 0.0 **** 0.0
6112 C 75.8821 45.8455 67.1427 C 0.0 **** 0.0
6113 C 75.1054 45.2491 68.1329 C 0.0 **** 0.0
6114 C 74.4358 44.0797 67.8514 C 0.0 **** 0.0
6115 C 74.5672 43.405 66.6301 C 0.0 **** 0.0
6116 C 75.2573 44.0322 65.5778 C 0.0 **** 0.0
6117 C 73.5265 43.4851 68.9064 C 0.0 **** 0.0
6118 C 73.2627 44.3483 70.1549 C 0.0 **** 0.0
6119 C 73.9891 45.485 70.3973 C 0.0 **** 0.0
6120 C 75.0968 45.8916 69.4979 C 0.0 **** 0.0
6121 C 73.7391 46.209 71.5952 C 0.0 **** 0.0
6122 C 72.6218 45.946 72.4199 C 0.0 **** 0.0
6123 C 71.9503 44.7222 72.2028 C 0.0 **** 0.0
6124 C 72.266 43.9325 71.063 C 0.0 **** 0.0
6125 C 71.6031 42.7347 70.8663 C 0.0 **** 0.0
6126 C 70.5114 42.3034 71.6335 C 0.0 **** 0.0
6127 C 70.0255 43.2107 72.6106 C 0.0 **** 0.0
6128 C 70.8716 44.2771 73.0242 C 0.0 **** 0.0
6129 C 68.5777 43.0954 73.1092 C 0.0 **** 0.0
6130 C 67.754 42.2503 72.1283 C 0.0 **** 0.0
6131 C 68.4832 41.0166 71.6592 C 0.0 **** 0.0
6132 C 69.8441 41.1041 71.3687 C 0.0 **** 0.0
6133 C 67.2835 43.0221 70.8819 C 0.0 **** 0.0
6134 C 67.6337 44.5595 70.9504 C 0.0 **** 0.0
6135 C 67.1762 45.1639 72.2468 C 0.0 **** 0.0
6136 C 67.8335 44.4212 73.4536 C 0.0 **** 0.0
6137 C 70.4869 39.9485 70.8955 C 0.0 **** 0.0
6138 C 69.7524 38.7903 70.6083 C 0.0 **** 0.0
6139 C 68.368 38.7474 70.8548 C 0.0 **** 0.0
6140 C 67.7427 39.8397 71.445 C 0.0 **** 0.0
6141 C 67.6376 37.5193 70.5761 C 0.0 **** 0.0
6142 C 68.2687 36.3899 69.8243 C 0.0 **** 0.0
6143 C 69.6298 36.4446 69.516 C 0.0 **** 0.0
6144 C 70.4228 37.6132 69.9774 C 0.0 **** 0.0
6145 C 70.2863 35.3777 68.6776 C 0.0 **** 0.0
6146 C 69.2792 34.6327 67.7824 C 0.0 **** 0.0
6147 C 67.9859 34.3549 68.4604 C 0.0 **** 0.0
6148 C 67.5341 35.2228 69.4795 C 0.0 **** 0.0
6149 N 66.2966 35.0536 69.9911 N 0.0 **** 0.0
6150 C 65.4465 34.0862 69.6572 C 0.0 **** 0.0
6151 C 65.84 33.1698 68.7039 C 0.0 **** 0.0
6152 C 67.1034 33.3037 68.0845 C 0.0 **** 0.0
6153 C 67.5164 32.3144 67.0411 C 0.0 **** 0.0
6154 C 66.676 31.0728 66.8704 C 0.0 **** 0.0
6155 C 65.2306 31.4196 66.9493 C 0.0 **** 0.0
6156 C 64.918 32.015 68.3426 C 0.0 **** 0.0
6157 C 63.4848 32.4807 68.3736 C 0.0 **** 0.0
6158 C 63.1382 33.2699 69.6627 C 0.0 **** 0.0
6159 C 64.1595 34.0906 70.1743 C 0.0 **** 0.0
6160 C 63.7972 35.0543 71.1522 C 0.0 **** 0.0
6161 C 62.5154 35.2024 71.6481 C 0.0 **** 0.0
6162 C 61.5092 34.3218 71.216 C 0.0 **** 0.0
6163 C 61.8022 33.3228 70.2195 C 0.0 **** 0.0
6164 C 75.3413 43.3265 64.1999 C 0.0 **** 0.0
6165 C 74.3256 43.7862 63.1566 C 0.0 **** 0.0
6166 C 76.3887 46.1307 64.6727 C 0.0 **** 0.0
6167 C 74.0108 42.0043 66.4448 C 0.0 **** 0.0
6168 C 76.7966 47.039 67.4423 C 0.0 **** 0.0
6169 C 74.6724 47.3556 72.0098 C 0.0 **** 0.0
6170 C 72.0226 46.9245 73.3922 C 0.0 **** 0.0
6171 O 70.7559 44.7592 74.3268 O 0.0 **** 0.0
6172 C 65.6323 45.1434 72.4108 C 0.0 **** 0.0
6173 C 67.1318 45.2595 69.7108 C 0.0 **** 0.0
6174 O 66.3718 39.7243 71.772 O 0.0 **** 0.0
6175 O 71.8699 39.9817 70.6794 O 0.0 **** 0.0
6176 O 71.6375 37.5179 69.8955 O 0.0 **** 0.0
6177 O 66.503 37.3922 71.015 O 0.0 **** 0.0
6178 C 60.758 32.3349 69.7355 C 0.0 **** 0.0
6179 C 60.0922 34.5965 71.7144 C 0.0 **** 0.0
6180 H 72.5473 43.4501 68.365 H 0.0 **** 0.0
6181 H 73.9328 42.5241 69.2921 H 0.0 **** 0.0
6182 H 76.0919 45.6799 69.9621 H 0.0 **** 0.0
6183 H 75.0468 46.9796 69.3659 H 0.0 **** 0.0
6184 H 71.7706 42.2094 69.9969 H 0.0 **** 0.0
6185 H 67.6544 42.5462 69.9763 H 0.0 **** 0.0
6186 H 66.1671 42.9379 70.8343 H 0.0 **** 0.0
6187 H 68.7536 44.6231 70.9343 H 0.0 **** 0.0
6188 H 67.4531 46.2534 72.2421 H 0.0 **** 0.0
6189 H 67.1367 44.1382 74.2837 H 0.0 **** 0.0
6190 H 68.5323 45.1631 73.9164 H 0.0 **** 0.0
6191 H 71.0587 35.8726 68.0008 H 0.0 **** 0.0
6192 H 70.8755 34.6799 69.324 H 0.0 **** 0.0
6193 H 69.8277 33.6574 67.5537 H 0.0 **** 0.0
6194 H 69.1657 35.2103 66.814 H 0.0 **** 0.0
6195 H 67.6641 32.8947 66.087 H 0.0 **** 0.0
6196 H 68.5258 31.9124 67.3537 H 0.0 **** 0.0
6197 H 66.9713 30.3621 67.6335 H 0.0 **** 0.0
6198 H 66.8122 30.6024 65.8949 H 0.0 **** 0.0
6199 H 64.618 30.5028 66.8125 H 0.0 **** 0.0
6200 H 64.9819 32.1022 66.1953 H 0.0 **** 0.0
6201 H 65.079 31.2183 69.1106 H 0.0 **** 0.0
6202 H 63.3306 33.1792 67.5231 H 0.0 **** 0.0
6203 H 62.8261 31.5737 68.2616 H 0.0 **** 0.0
6204 H 64.5517 35.6922 71.5826 H 0.0 **** 0.0
6205 H 62.3369 35.9307 72.4967 H 0.0 **** 0.0
6206 H 75.2909 42.2422 64.2152 H 0.0 **** 0.0
6207 H 76.3317 43.5894 63.786 H 0.0 **** 0.0
6208 H 73.2932 43.7946 63.576 H 0.0 **** 0.0
6209 H 74.3238 43.1043 62.318 H 0.0 **** 0.0
6210 H 74.5205 44.7722 62.6824 H 0.0 **** 0.0
6211 H 76.0788 45.8132 63.6725 H 0.0 **** 0.0
6212 H 77.4847 46.0297 64.6629 H 0.0 **** 0.0
6213 H 76.0233 47.2121 64.7543 H 0.0 **** 0.0
6214 H 73.6317 41.4709 67.3805 H 0.0 **** 0.0
6215 H 74.9051 41.4017 66.1171 H 0.0 **** 0.0
6216 H 73.2755 42.0074 65.6671 H 0.0 **** 0.0
6217 H 77.4799 46.9006 68.2747 H 0.0 **** 0.0
6218 H 76.1778 47.9537 67.6475 H 0.0 **** 0.0
6219 H 77.4837 47.2772 66.6022 H 0.0 **** 0.0
6220 H 74.9427 47.256 73.0829 H 0.0 **** 0.0
6221 H 74.2128 48.3849 71.788 H 0.0 **** 0.0
6222 H 75.6609 47.3511 71.518 H 0.0 **** 0.0
6223 H 70.94 46.8743 73.2558 H 0.0 **** 0.0
6224 H 72.2853 47.983 73.1407 H 0.0 **** 0.0
6225 H 72.3397 46.6346 74.4356 H 0.0 **** 0.0
6226 H 70.2407 44.1541 74.9637 H 0.0 **** 0.0
6227 H 65.1041 45.6533 71.5694 H 0.0 **** 0.0
6228 H 65.392 45.6824 73.3678 H 0.0 **** 0.0
6229 H 65.2105 44.1291 72.4982 H 0.0 **** 0.0
6230 H 67.6655 44.7906 68.8517 H 0.0 **** 0.0
6231 H 67.3268 46.3298 69.7328 H 0.0 **** 0.0
6232 H 66.0679 45.0359 69.5897 H 0.0 **** 0.0
6233 H 66.0228 40.5165 72.3046 H 0.0 **** 0.0
6234 H 72.1 39.8654 69.7235 H 0.0 **** 0.0
6235 H 60.413 32.6277 68.7017 H 0.0 **** 0.0
6236 H 59.8399 32.2441 70.4191 H 0.0 **** 0.0
6237 H 61.2043 31.3079 69.7049 H 0.0 **** 0.0
6238 H 59.3618 34.5314 70.8645 H 0.0 **** 0.0
6239 H 59.955 35.6359 72.0939 H 0.0 **** 0.0
6240 H 59.8061 33.8524 72.5084 H 0.0 **** 0.0
6241 C 17.9139 49.5444 95.9401 C 0.0 **** 0.0
6242 C 16.9111 48.5309 95.9953 C 0.0 **** 0.0
6243 C 16.9651 47.3926 95.137 C 0.0 **** 0.0
6244 C 18.0973 47.211 94.2839 C 0.0 **** 0.0
6245 C 19.1612 48.1776 94.2826 C 0.0 **** 0.0
6246 C 19.0316 49.3926 95.0399 C 0.0 **** 0.0
6247 C 18.1961 45.9134 93.5406 C 0.0 **** 0.0
6248 C 16.8681 45.375 93.0193 C 0.0 **** 0.0
6249 C 15.6866 45.5719 93.7962 C 0.0 **** 0.0
6250 C 15.8243 46.3618 95.0997 C 0.0 **** 0.0
6251 C 14.4593 44.9547 93.4598 C 0.0 **** 0.0
6252 C 14.3271 44.3862 92.201 C 0.0 **** 0.0
6253 C 15.4706 44.2714 91.2896 C 0.0 **** 0.0
6254 C 16.7527 44.6642 91.8051 C 0.0 **** 0.0
6255 C 17.8737 44.2787 91.0639 C 0.0 **** 0.0
6256 C 17.7806 43.7986 89.7753 C 0.0 **** 0.0
6257 C 16.5245 43.6963 89.1831 C 0.0 **** 0.0
6258 C 15.3422 43.8505 89.9358 C 0.0 **** 0.0
6259 C 16.5005 43.317 87.7123 C 0.0 **** 0.0
6260 C 17.5564 42.2636 87.3966 C 0.0 **** 0.0
6261 C 18.9168 42.8338 87.7799 C 0.0 **** 0.0
6262 C 18.9362 43.6666 88.9576 C 0.0 **** 0.0
6263 C 17.2997 41.8445 85.9337 C 0.0 **** 0.0
6264 C 17.4152 43.0158 84.9361 C 0.0 **** 0.0
6265 C 16.5937 44.2498 85.2739 C 0.0 **** 0.0
6266 C 16.5862 44.5795 86.813 C 0.0 **** 0.0
6267 C 19.9932 44.5798 89.1555 C 0.0 **** 0.0
6268 C 21.1801 44.4447 88.4036 C 0.0 **** 0.0
6269 C 21.2576 43.4144 87.479 C 0.0 **** 0.0
6270 C 20.1329 42.6826 87.0756 C 0.0 **** 0.0
6271 C 22.5897 43.2052 86.834 C 0.0 **** 0.0
6272 C 23.6092 44.2648 86.7177 C 0.0 **** 0.0
6273 C 23.4811 45.3512 87.6009 C 0.0 **** 0.0
6274 C 22.3294 45.3944 88.5878 C 0.0 **** 0.0
6275 C 24.5287 46.4272 87.6229 C 0.0 **** 0.0
6276 C 25.1853 46.5889 86.2466 C 0.0 **** 0.0
6277 C 25.6093 45.2694 85.6528 C 0.0 **** 0.0
6278 C 24.7245 44.1546 85.8516 C 0.0 **** 0.0
6279 N 25.022 43.0161 85.1938 N 0.0 **** 0.0
6280 C 26.1231 42.8041 84.4065 C 0.0 **** 0.0
6281 C 27.087 43.8005 84.3688 C 0.0 **** 0.0
6282 C 26.764 45.091 84.8401 C 0.0 **** 0.0
6283 C 27.7311 46.2407 84.5023 C 0.0 **** 0.0
6284 C 28.6885 45.8665 83.3025 C 0.0 **** 0.0
6285 C 29.419 44.6032 83.6368 C 0.0 **** 0.0
6286 C 28.4359 43.416 83.8531 C 0.0 **** 0.0
6287 C 28.3005 42.5873 82.6021 C 0.0 **** 0.0
6288 C 27.4398 41.3649 82.8674 C 0.0 **** 0.0
6289 C 26.3608 41.5197 83.8003 C 0.0 **** 0.0
6290 C 25.5858 40.4106 84.1297 C 0.0 **** 0.0
6291 C 25.7776 39.2129 83.4498 C 0.0 **** 0.0
6292 C 26.8321 39.0098 82.5658 C 0.0 **** 0.0
6293 C 27.6882 40.1104 82.2796 C 0.0 **** 0.0
6294 C 20.136 50.4323 94.9985 C 0.0 **** 0.0
6295 C 19.9555 51.2131 93.6938 C 0.0 **** 0.0
6296 C 17.8279 50.6805 96.8879 C 0.0 **** 0.0
6297 C 20.4163 47.9346 93.5278 C 0.0 **** 0.0
6298 C 15.9113 48.5547 97.1586 C 0.0 **** 0.0
6299 C 13.3678 44.7647 94.5253 C 0.0 **** 0.0
6300 C 12.9722 43.7647 91.7847 C 0.0 **** 0.0
6301 O 14.106 43.6196 89.3885 O 0.0 **** 0.0
6302 C 15.147 44.2576 84.7458 C 0.0 **** 0.0
6303 C 17.177 42.4924 83.5071 C 0.0 **** 0.0
6304 O 20.2287 41.7028 86.0582 O 0.0 **** 0.0
6305 O 19.7753 45.7471 89.9026 O 0.0 **** 0.0
6306 O 22.4068 46.1145 89.5698 O 0.0 **** 0.0
6307 O 22.9057 42.1011 86.402 O 0.0 **** 0.0
6308 C 28.8117 39.9464 81.253 C 0.0 **** 0.0
6309 C 26.946 37.7058 81.8606 C 0.0 **** 0.0
6310 H 18.8448 46.0609 92.6945 H 0.0 **** 0.0
6311 H 18.6096 45.1738 94.2482 H 0.0 **** 0.0
6312 H 15.9812 45.6547 95.9334 H 0.0 **** 0.0
6313 H 14.8491 46.8849 95.2806 H 0.0 **** 0.0
6314 H 18.8663 44.3738 91.5078 H 0.0 **** 0.0
6315 H 17.8459 40.8876 85.5897 H 0.0 **** 0.0
6316 H 16.2142 41.5392 85.8656 H 0.0 **** 0.0
6317 H 18.4603 43.3189 85.0291 H 0.0 **** 0.0
6318 H 17.0727 45.0927 84.7194 H 0.0 **** 0.0
6319 H 15.8188 45.2929 87.0628 H 0.0 **** 0.0
6320 H 17.5759 45.1073 87.0595 H 0.0 **** 0.0
6321 H 24.0826 47.3748 87.9311 H 0.0 **** 0.0
6322 H 25.241 46.2057 88.428 H 0.0 **** 0.0
6323 H 26.0191 47.2579 86.3783 H 0.0 **** 0.0
6324 H 24.4757 47.0355 85.5642 H 0.0 **** 0.0
6325 H 27.1642 47.1228 84.2104 H 0.0 **** 0.0
6326 H 28.3431 46.4686 85.4046 H 0.0 **** 0.0
6327 H 29.4357 46.6676 83.1818 H 0.0 **** 0.0
6328 H 28.1153 45.811 82.3694 H 0.0 **** 0.0
6329 H 30.0192 44.7835 84.575 H 0.0 **** 0.0
6330 H 30.2125 44.3339 82.89 H 0.0 **** 0.0
6331 H 28.8892 42.7011 84.6021 H 0.0 **** 0.0
6332 H 27.7815 43.2367 81.8465 H 0.0 **** 0.0
6333 H 29.3089 42.3433 82.257 H 0.0 **** 0.0
6334 H 24.7873 40.4201 84.7419 H 0.0 **** 0.0
6335 H 25.0769 38.4333 83.6821 H 0.0 **** 0.0
6336 H 21.1041 49.9513 95.0639 H 0.0 **** 0.0
6337 H 20.1288 51.1362 95.8684 H 0.0 **** 0.0
6338 H 19.0456 51.8287 93.8247 H 0.0 **** 0.0
6339 H 19.777 50.5933 92.7938 H 0.0 **** 0.0
6340 H 20.8662 51.8615 93.5048 H 0.0 **** 0.0
6341 H 16.8639 50.8116 97.2792 H 0.0 **** 0.0
6342 H 18.0871 51.6402 96.402 H 0.0 **** 0.0
6343 H 18.5553 50.4228 97.6997 H 0.0 **** 0.0
6344 H 20.6359 46.8642 93.3234 H 0.0 **** 0.0
6345 H 21.3646 48.2212 94.0709 H 0.0 **** 0.0
6346 H 20.3575 48.4785 92.5857 H 0.0 **** 0.0
6347 H 15.3722 47.5706 97.3072 H 0.0 **** 0.0
6348 H 15.1153 49.3297 97.0156 H 0.0 **** 0.0
6349 H 16.4835 48.6459 98.1091 H 0.0 **** 0.0
6350 H 13.0179 43.6955 94.575 H 0.0 **** 0.0
6351 H 12.5737 45.4545 94.3001 H 0.0 **** 0.0
6352 H 13.7274 44.9485 95.5484 H 0.0 **** 0.0
6353 H 12.4199 44.4385 91.0595 H 0.0 **** 0.0
6354 H 12.2343 43.4973 92.5984 H 0.0 **** 0.0
6355 H 13.0658 42.7953 91.2661 H 0.0 **** 0.0
6356 H 14.1553 43.2481 88.4506 H 0.0 **** 0.0
6357 H 15.1658 44.3308 83.6696 H 0.0 **** 0.0
6358 H 14.6155 45.1634 85.1333 H 0.0 **** 0.0
6359 H 14.6329 43.3477 84.9762 H 0.0 **** 0.0
6360 H 17.7548 41.5255 83.3828 H 0.0 **** 0.0
6361 H 17.4799 43.3158 82.7678 H 0.0 **** 0.0
6362 H 16.0992 42.2427 83.2951 H 0.0 **** 0.0
6363 H 20.9062 41.8887 85.3457 H 0.0 **** 0.0
6364 H 19.9132 46.6148 89.4215 H 0.0 **** 0.0
6365 H 28.6579 40.6807 80.4422 H 0.0 **** 0.0
6366 H 28.8608 38.9498 80.8 H 0.0 **** 0.0
6367 H 29.8089 40.1857 81.6856 H 0.0 **** 0.0
6368 H 26.7831 37.85 80.8057 H 0.0 **** 0.0
6369 H 26.204 37.015 82.2874 H 0.0 **** 0.0
6370 H 27.9138 37.2487 82.0538 H 0.0 **** 0.0
6371 C 57.0935 43.6827 64.7433 C 0.0 **** 0.0
6372 C 58.4121 43.13 64.9023 C 0.0 **** 0.0
6373 C 58.9921 42.3595 63.8523 C 0.0 **** 0.0
6374 C 58.2873 42.1972 62.6173 C 0.0 **** 0.0
6375 C 56.8911 42.4846 62.5833 C 0.0 **** 0.0
6376 C 56.3082 43.287 63.6212 C 0.0 **** 0.0
6377 C 59.1044 42.0701 61.3526 C 0.0 **** 0.0
6378 C 60.146 41.0183 61.4816 C 0.0 **** 0.0
6379 C 60.6465 40.7598 62.7759 C 0.0 **** 0.0
6380 C 60.3139 41.6592 63.9498 C 0.0 **** 0.0
6381 C 61.464 39.5887 62.9761 C 0.0 **** 0.0
6382 C 61.5069 38.5778 62.0426 C 0.0 **** 0.0
6383 C 61.0423 38.841 60.6982 C 0.0 **** 0.0
6384 C 60.3626 40.1019 60.4164 C 0.0 **** 0.0
6385 C 59.8981 40.3544 59.1331 C 0.0 **** 0.0
6386 C 59.8316 39.3944 58.1599 C 0.0 **** 0.0
6387 C 60.5364 38.1961 58.3941 C 0.0 **** 0.0
6388 C 61.0645 37.8553 59.6635 C 0.0 **** 0.0
6389 C 60.5036 37.1547 57.3265 C 0.0 **** 0.0
6390 C 60.6606 37.7993 55.9384 C 0.0 **** 0.0
6391 C 59.6895 39.0025 55.7627 C 0.0 **** 0.0
6392 C 59.2239 39.6854 56.8945 C 0.0 **** 0.0
6393 C 60.5329 36.6153 54.9598 C 0.0 **** 0.0
6394 C 59.2185 35.7861 55.1157 C 0.0 **** 0.0
6395 C 59.0914 35.1535 56.4255 C 0.0 **** 0.0
6396 C 59.2847 36.2071 57.5272 C 0.0 **** 0.0
6397 C 58.1031 40.5777 56.7447 C 0.0 **** 0.0
6398 C 57.6877 40.9409 55.427 C 0.0 **** 0.0
6399 C 58.3886 40.4305 54.3488 C 0.0 **** 0.0
6400 C 59.378 39.4556 54.5011 C 0.0 **** 0.0
6401 C 58.0563 40.9254 52.9534 C 0.0 **** 0.0
6402 C 56.7586 41.579 52.6689 C 0.0 **** 0.0
6403 C 55.9834 41.9958 53.7595 C 0.0 **** 0.0
6404 C 56.5206 41.8205 55.1517 C 0.0 **** 0.0
6405 C 54.6325 42.6415 53.5969 C 0.0 **** 0.0
6406 C 53.9591 42.1893 52.3304 C 0.0 **** 0.0
6407 C 54.875 42.0078 51.1618 C 0.0 **** 0.0
6408 C 56.2123 41.6135 51.3845 C 0.0 **** 0.0
6409 N 56.9655 41.2122 50.2949 N 0.0 **** 0.0
6410 C 56.4646 41.1145 49.0285 C 0.0 **** 0.0
6411 C 55.112 41.3996 48.7868 C 0.0 **** 0.0
6412 C 54.357 41.997 49.8454 C 0.0 **** 0.0
6413 C 52.9407 42.3859 49.6072 C 0.0 **** 0.0
6414 C 52.5599 42.6043 48.1172 C 0.0 **** 0.0
6415 C 53.0089 41.4398 47.2197 C 0.0 **** 0.0
6416 C 54.5562 41.2752 47.354 C 0.0 **** 0.0
6417 C 55.1874 40.144 46.5415 C 0.0 **** 0.0
6418 C 56.6286 39.9617 46.7737 C 0.0 **** 0.0
6419 C 57.2375 40.5225 48.0031 C 0.0 **** 0.0
6420 C 58.5915 40.3363 48.1881 C 0.0 **** 0.0
6421 C 59.3485 39.7099 47.1791 C 0.0 **** 0.0
6422 C 58.8294 39.1448 46.0378 C 0.0 **** 0.0
6423 C 57.4008 39.1907 45.8452 C 0.0 **** 0.0
6424 C 54.8422 43.4871 63.6503 C 0.0 **** 0.0
6425 C 54.2079 42.3782 64.5282 C 0.0 **** 0.0
6426 C 56.5794 44.7208 65.7165 C 0.0 **** 0.0
6427 C 55.9991 41.9216 61.4727 C 0.0 **** 0.0
6428 C 59.2689 43.3614 66.1134 C 0.0 **** 0.0
6429 C 62.3106 39.4345 64.2122 C 0.0 **** 0.0
6430 C 61.9639 37.1922 62.4959 C 0.0 **** 0.0
6431 O 61.6696 36.6032 59.8699 O 0.0 **** 0.0
6432 C 59.9719 33.9185 56.6663 C 0.0 **** 0.0
6433 C 58.9121 34.8833 53.9387 C 0.0 **** 0.0
6434 O 59.9759 38.8409 53.3813 O 0.0 **** 0.0
6435 O 57.2875 40.8332 57.8602 O 0.0 **** 0.0
6436 O 56.0293 42.4934 56.0134 O 0.0 **** 0.0
6437 O 58.8234 40.7712 51.9843 O 0.0 **** 0.0
6438 C 56.6913 38.5447 44.6397 C 0.0 **** 0.0
6439 C 59.7138 38.4245 45.0978 C 0.0 **** 0.0
6440 H 58.4512 41.9463 60.4873 H 0.0 **** 0.0
6441 H 59.7016 43.0426 61.136 H 0.0 **** 0.0
6442 H 61.1152 42.4204 64.057 H 0.0 **** 0.0
6443 H 60.2967 41.0243 64.8726 H 0.0 **** 0.0
6444 H 59.5575 41.3647 58.7777 H 0.0 **** 0.0
6445 H 60.7191 36.8795 53.9091 H 0.0 **** 0.0
6446 H 61.3407 35.9048 55.1709 H 0.0 **** 0.0
6447 H 58.3776 36.5532 55.0769 H 0.0 **** 0.0
6448 H 58.0695 34.6927 56.5941 H 0.0 **** 0.0
6449 H 59.3437 35.7386 58.5233 H 0.0 **** 0.0
6450 H 58.3307 36.8076 57.5104 H 0.0 **** 0.0
6451 H 53.9251 42.3605 54.4638 H 0.0 **** 0.0
6452 H 54.7665 43.7282 53.5355 H 0.0 **** 0.0
6453 H 53.1964 42.9705 52.151 H 0.0 **** 0.0
6454 H 53.3626 41.2113 52.4961 H 0.0 **** 0.0
6455 H 52.339 41.5632 50.0495 H 0.0 **** 0.0
6456 H 52.67 43.3472 50.0891 H 0.0 **** 0.0
6457 H 53.0621 43.5133 47.7613 H 0.0 **** 0.0
6458 H 51.5056 42.7823 48.0487 H 0.0 **** 0.0
6459 H 52.6862 41.7408 46.2071 H 0.0 **** 0.0
6460 H 52.4152 40.5305 47.4688 H 0.0 **** 0.0
6461 H 54.9986 42.2043 46.9028 H 0.0 **** 0.0
6462 H 54.6902 39.1896 46.7758 H 0.0 **** 0.0
6463 H 54.9567 40.4225 45.4588 H 0.0 **** 0.0
6464 H 59.098 40.7463 49.0192 H 0.0 **** 0.0
6465 H 60.4296 39.6763 47.3943 H 0.0 **** 0.0
6466 H 54.4164 43.4638 62.6593 H 0.0 **** 0.0
6467 H 54.4963 44.4688 64.0055 H 0.0 **** 0.0
6468 H 54.6073 42.3421 65.5718 H 0.0 **** 0.0
6469 H 54.4422 41.4033 64.0335 H 0.0 **** 0.0
6470 H 53.1065 42.4723 64.5108 H 0.0 **** 0.0
6471 H 56.1252 44.1908 66.5585 H 0.0 **** 0.0
6472 H 55.9823 45.4539 65.2233 H 0.0 **** 0.0
6473 H 57.3939 45.3081 66.1195 H 0.0 **** 0.0
6474 H 56.5388 41.3234 60.7713 H 0.0 **** 0.0
6475 H 55.4266 42.7134 60.8828 H 0.0 **** 0.0
6476 H 55.2452 41.2276 61.9083 H 0.0 **** 0.0
6477 H 60.1858 43.8641 65.7858 H 0.0 **** 0.0
6478 H 59.5429 42.4044 66.6152 H 0.0 **** 0.0
6479 H 58.8573 43.9839 66.94 H 0.0 **** 0.0
6480 H 63.274 38.9559 64.0702 H 0.0 **** 0.0
6481 H 61.691 38.8578 64.9434 H 0.0 **** 0.0
6482 H 62.4987 40.4169 64.6154 H 0.0 **** 0.0
6483 H 61.14 36.4903 62.2987 H 0.0 **** 0.0
6484 H 62.0484 37.0624 63.5786 H 0.0 **** 0.0
6485 H 62.9395 36.8966 62.0294 H 0.0 **** 0.0
6486 H 61.8849 36.0409 59.0636 H 0.0 **** 0.0
6487 H 59.8894 33.2008 55.8748 H 0.0 **** 0.0
6488 H 59.6615 33.4547 57.6346 H 0.0 **** 0.0
6489 H 61.0408 34.2011 56.7266 H 0.0 **** 0.0
6490 H 58.7437 35.4877 53.0554 H 0.0 **** 0.0
6491 H 58.0332 34.2578 54.0967 H 0.0 **** 0.0
6492 H 59.7926 34.2136 53.8176 H 0.0 **** 0.0
6493 H 59.2632 38.5616 52.7614 H 0.0 **** 0.0
6494 H 57.073 41.8198 58.0094 H 0.0 **** 0.0
6495 H 57.3989 37.9581 44.0364 H 0.0 **** 0.0
6496 H 56.1945 39.2957 43.9848 H 0.0 **** 0.0
6497 H 55.9552 37.7988 44.9906 H 0.0 **** 0.0
6498 H 59.5598 38.8118 44.0074 H 0.0 **** 0.0
6499 H 59.4653 37.3451 45.1974 H 0.0 **** 0.0
6500 H 60.7674 38.4938 45.3645 H 0.0 **** 0.0
6501 C 74.0446 33.7098 3.5939 C 0.0 **** 0.0
6502 C 74.6301 32.4227 3.39856 C 0.0 **** 0.0
6503 C 75.1429 31.7782 4.54321 C 0.0 **** 0.0
6504 C 74.7371 32.2114 5.84667 C 0.0 **** 0.0
6505 C 74.0049 33.4177 6.00836 C 0.0 **** 0.0
6506 C 73.8553 34.2826 4.90958 C 0.0 **** 0.0
6507 C 75.0569 31.2519 7.0245 C 0.0 **** 0.0
6508 C 76.4151 30.6187 6.90925 C 0.0 **** 0.0
6509 C 76.9034 30.3284 5.62462 C 0.0 **** 0.0
6510 C 76.076 30.6088 4.39398 C 0.0 **** 0.0
6511 C 78.1633 29.7363 5.51229 C 0.0 **** 0.0
6512 C 79.0483 29.6289 6.65332 C 0.0 **** 0.0
6513 C 78.6179 29.9724 7.95589 C 0.0 **** 0.0
6514 C 77.2612 30.4137 8.08824 C 0.0 **** 0.0
6515 C 76.7506 30.5751 9.40984 C 0.0 **** 0.0
6516 C 77.6138 30.5098 10.5627 C 0.0 **** 0.0
6517 C 78.9707 30.4694 10.3611 C 0.0 **** 0.0
6518 C 79.5012 30.0286 9.11019 C 0.0 **** 0.0
6519 C 79.9441 30.9541 11.4199 C 0.0 **** 0.0
6520 C 79.2499 31.4233 12.7184 C 0.0 **** 0.0
6521 C 77.8549 30.8405 12.9522 C 0.0 **** 0.0
6522 C 77.0864 30.3769 11.8559 C 0.0 **** 0.0
6523 C 79.2173 32.9214 12.8611 C 0.0 **** 0.0
6524 C 79.2867 33.6551 11.4689 C 0.0 **** 0.0
6525 C 80.5828 33.4764 10.8027 C 0.0 **** 0.0
6526 C 81.0573 31.9939 10.9638 C 0.0 **** 0.0
6527 C 75.878 29.6082 12.1176 C 0.0 **** 0.0
6528 C 75.4366 29.4907 13.4552 C 0.0 **** 0.0
6529 C 76.0429 30.1938 14.4897 C 0.0 **** 0.0
6530 C 77.3574 30.7721 14.2476 C 0.0 **** 0.0
6531 C 75.5056 30.0835 15.9029 C 0.0 **** 0.0
6532 C 74.2424 29.3113 16.1393 C 0.0 **** 0.0
6533 C 73.755 28.4707 15.1257 C 0.0 **** 0.0
6534 C 74.4319 28.4456 13.7942 C 0.0 **** 0.0
6535 C 72.7034 27.4096 15.4797 C 0.0 **** 0.0
6536 C 71.6436 27.9437 16.4204 C 0.0 **** 0.0
6537 C 72.2347 28.7887 17.5575 C 0.0 **** 0.0
6538 C 73.4634 29.4841 17.3862 C 0.0 **** 0.0
6539 N 73.8963 30.3036 18.3699 N 0.0 **** 0.0
6540 C 73.2475 30.4625 19.5595 C 0.0 **** 0.0
6541 C 71.9771 29.8199 19.7405 C 0.0 **** 0.0
6542 C 71.4662 28.969 18.7471 C 0.0 **** 0.0
6543 C 70.1009 28.3256 18.9234 C 0.0 **** 0.0
6544 C 69.4326 28.431 20.2943 C 0.0 **** 0.0
6545 C 69.7571 29.767 20.8959 C 0.0 **** 0.0
6546 C 71.2364 29.9873 21.0573 C 0.0 **** 0.0
6547 C 71.4454 31.4383 21.5897 C 0.0 **** 0.0
6548 C 72.9553 31.7238 21.6639 C 0.0 **** 0.0
6549 C 73.7482 31.2955 20.5575 C 0.0 **** 0.0
6550 C 75.0879 31.6943 20.5873 C 0.0 **** 0.0
6551 C 75.6526 32.3419 21.7059 C 0.0 **** 0.0
6552 C 74.8818 32.7002 22.7904 C 0.0 **** 0.0
6553 C 73.4968 32.3945 22.7427 C 0.0 **** 0.0
6554 C 73.7171 35.78 5.12365 C 0.0 **** 0.0
6555 C 72.2552 36.2168 4.94322 C 0.0 **** 0.0
6556 C 73.5691 34.4999 2.40413 C 0.0 **** 0.0
6557 C 73.4479 33.7878 7.36709 C 0.0 **** 0.0
6558 C 74.6641 31.7789 2.04714 C 0.0 **** 0.0
6559 C 78.6012 29.2267 4.11905 C 0.0 **** 0.0
6560 C 80.4511 29.1994 6.43876 C 0.0 **** 0.0
6561 O 80.7669 29.4249 9.04923 O 0.0 **** 0.0
6562 C 81.6309 34.4759 11.3715 C 0.0 **** 0.0
6563 C 78.8497 35.1249 11.5426 C 0.0 **** 0.0
6564 O 78.1766 31.2208 15.2611 O 0.0 **** 0.0
6565 O 75.1312 29.0753 11.0498 O 0.0 **** 0.0
6566 O 74.1395 27.554 12.9905 O 0.0 **** 0.0
6567 O 76.1136 30.5573 16.8535 O 0.0 **** 0.0
6568 C 72.6125 32.8459 23.8581 C 0.0 **** 0.0
6569 C 75.5701 33.4108 23.9201 C 0.0 **** 0.0
6570 H 74.9568 31.7979 7.94318 H 0.0 **** 0.0
6571 H 74.2721 30.4585 6.99257 H 0.0 **** 0.0
6572 H 75.5192 29.6358 4.13255 H 0.0 **** 0.0
6573 H 76.7649 30.8356 3.57688 H 0.0 **** 0.0
6574 H 75.7431 30.8227 9.63639 H 0.0 **** 0.0
6575 H 78.2648 33.2498 13.3753 H 0.0 **** 0.0
6576 H 80.0176 33.2416 13.5041 H 0.0 **** 0.0
6577 H 78.5795 33.1583 10.7558 H 0.0 **** 0.0
6578 H 80.5632 33.7234 9.71477 H 0.0 **** 0.0
6579 H 81.8621 31.9345 11.731 H 0.0 **** 0.0
6580 H 81.5193 31.6754 10.0027 H 0.0 **** 0.0
6581 H 72.1439 27.0734 14.5359 H 0.0 **** 0.0
6582 H 73.2142 26.5506 15.8983 H 0.0 **** 0.0
6583 H 71.1719 27.0674 16.8728 H 0.0 **** 0.0
6584 H 70.9131 28.5242 15.8549 H 0.0 **** 0.0
6585 H 69.4011 28.7513 18.1357 H 0.0 **** 0.0
6586 H 70.1657 27.2124 18.6982 H 0.0 **** 0.0
6587 H 69.7283 27.5955 20.9979 H 0.0 **** 0.0
6588 H 68.3137 28.3295 20.1992 H 0.0 **** 0.0
6589 H 69.2716 29.8262 21.884 H 0.0 **** 0.0
6590 H 69.3058 30.5453 20.2589 H 0.0 **** 0.0
6591 H 71.635 29.2505 21.8426 H 0.0 **** 0.0
6592 H 70.9022 32.1552 20.9729 H 0.0 **** 0.0
6593 H 70.9247 31.4531 22.5838 H 0.0 **** 0.0
6594 H 75.7904 31.4832 19.7616 H 0.0 **** 0.0
6595 H 76.7351 32.4603 21.6858 H 0.0 **** 0.0
6596 H 74.4229 36.3289 4.50965 H 0.0 **** 0.0
6597 H 74.0604 36.0504 6.15375 H 0.0 **** 0.0
6598 H 71.5347 35.4241 5.20574 H 0.0 **** 0.0
6599 H 71.9949 36.5159 3.93825 H 0.0 **** 0.0
6600 H 72.0389 37.1355 5.51008 H 0.0 **** 0.0
6601 H 73.4162 35.6183 2.53112 H 0.0 **** 0.0
6602 H 72.6108 34.0065 2.22711 H 0.0 **** 0.0
6603 H 74.2098 34.3678 1.53234 H 0.0 **** 0.0
6604 H 74.289 33.9836 8.11615 H 0.0 **** 0.0
6605 H 72.7343 33.0261 7.77006 H 0.0 **** 0.0
6606 H 72.8311 34.6866 7.35176 H 0.0 **** 0.0
6607 H 75.3212 32.3246 1.32867 H 0.0 **** 0.0
6608 H 73.6177 31.7574 1.70795 H 0.0 **** 0.0
6609 H 74.9494 30.7154 1.99799 H 0.0 **** 0.0
6610 H 79.2373 28.3083 4.2242 H 0.0 **** 0.0
6611 H 79.191 30.0366 3.57155 H 0.0 **** 0.0
6612 H 77.7826 28.8594 3.48185 H 0.0 **** 0.0
6613 H 81.1307 29.9872 6.82341 H 0.0 **** 0.0
6614 H 80.8167 29.1376 5.41347 H 0.0 **** 0.0
6615 H 80.5745 28.1794 6.8489 H 0.0 **** 0.0
6616 H 81.1732 29.229 9.94616 H 0.0 **** 0.0
6617 H 81.4289 35.5405 10.9628 H 0.0 **** 0.0
6618 H 82.6597 34.2414 10.9848 H 0.0 **** 0.0
6619 H 81.5993 34.4889 12.4862 H 0.0 **** 0.0
6620 H 77.7454 35.1433 11.5665 H 0.0 **** 0.0
6621 H 79.1788 35.6949 10.5675 H 0.0 **** 0.0
6622 H 79.1558 35.6401 12.4695 H 0.0 **** 0.0
6623 H 78.1896 30.534 16.0447 H 0.0 **** 0.0
6624 H 74.127 29.0291 11.1737 H 0.0 **** 0.0
6625 H 71.6805 33.3576 23.432 H 0.0 **** 0.0
6626 H 73.1345 33.5565 24.5871 H 0.0 **** 0.0
6627 H 72.2733 31.9851 24.4463 H 0.0 **** 0.0
6628 H 75.2471 34.4406 23.9519 H 0.0 **** 0.0
6629 H 76.6511 33.397 23.8621 H 0.0 **** 0.0
6630 H 75.2708 32.9391 24.8753 H 0.0 **** 0.0
6631 C 103.388 100.273 18.3843 C 0.0 **** 0.0
6632 C 104.251 100.065 17.2881 C 0.0 **** 0.0
6633 C 104.91 98.8071 17.1278 C 0.0 **** 0.0
6634 C 104.527 97.7336 17.9297 C 0.0 **** 0.0
6635 C 103.368 97.8629 18.7717 C 0.0 **** 0.0
6636 C 102.835 99.1464 19.0073 C 0.0 **** 0.0
6637 C 105.404 96.4778 18.0371 C 0.0 **** 0.0
6638 C 106.644 96.4357 17.2066 C 0.0 **** 0.0
6639 C 107.021 97.4956 16.3867 C 0.0 **** 0.0
6640 C 106.187 98.7445 16.3279 C 0.0 **** 0.0
6641 C 108.219 97.4328 15.6089 C 0.0 **** 0.0
6642 C 108.94 96.2038 15.5703 C 0.0 **** 0.0
6643 C 108.446 95.0348 16.2307 C 0.0 **** 0.0
6644 C 107.414 95.2178 17.2026 C 0.0 **** 0.0
6645 C 107.054 94.0737 18.0461 C 0.0 **** 0.0
6646 C 107.625 92.771 17.8234 C 0.0 **** 0.0
6647 C 108.744 92.6856 16.972 C 0.0 **** 0.0
6648 C 108.999 93.7206 16.0268 C 0.0 **** 0.0
6649 C 109.649 91.4806 17.0178 C 0.0 **** 0.0
6650 C 109.315 90.5007 18.1628 C 0.0 **** 0.0
6651 C 107.839 90.403 18.5044 C 0.0 **** 0.0
6652 C 107.059 91.5871 18.3425 C 0.0 **** 0.0
6653 C 110.12 90.7701 19.3999 C 0.0 **** 0.0
6654 C 111.618 90.5535 19.1427 C 0.0 **** 0.0
6655 C 112.044 90.868 17.7746 C 0.0 **** 0.0
6656 C 111.153 91.9181 17.1255 C 0.0 **** 0.0
6657 C 105.684 91.5031 18.6653 C 0.0 **** 0.0
6658 C 105.141 90.3282 19.1598 C 0.0 **** 0.0
6659 C 105.972 89.2105 19.3912 C 0.0 **** 0.0
6660 C 107.322 89.2449 19.0265 C 0.0 **** 0.0
6661 C 105.353 87.9984 19.9864 C 0.0 **** 0.0
6662 C 104.017 88.1134 20.6502 C 0.0 **** 0.0
6663 C 103.113 89.1051 20.2034 C 0.0 **** 0.0
6664 C 103.657 90.1559 19.3026 C 0.0 **** 0.0
6665 C 101.754 89.319 20.7918 C 0.0 **** 0.0
6666 C 101.26 88.159 21.6834 C 0.0 **** 0.0
6667 C 102.383 87.2666 22.2913 C 0.0 **** 0.0
6668 C 103.686 87.2903 21.7414 C 0.0 **** 0.0
6669 N 104.625 86.3969 22.1917 N 0.0 **** 0.0
6670 C 104.35 85.4415 23.1079 C 0.0 **** 0.0
6671 C 103.107 85.4551 23.7678 C 0.0 **** 0.0
6672 C 102.136 86.376 23.3799 C 0.0 **** 0.0
6673 C 100.805 86.4245 24.125 C 0.0 **** 0.0
6674 C 100.39 85.037 24.5952 C 0.0 **** 0.0
6675 C 101.508 84.4644 25.4707 C 0.0 **** 0.0
6676 C 102.755 84.259 24.6323 C 0.0 **** 0.0
6677 C 104.004 83.7653 25.419 C 0.0 **** 0.0
6678 C 105.2 83.5823 24.5077 C 0.0 **** 0.0
6679 C 105.349 84.4771 23.4144 C 0.0 **** 0.0
6680 C 106.475 84.3558 22.6143 C 0.0 **** 0.0
6681 C 107.414 83.3761 22.8049 C 0.0 **** 0.0
6682 C 107.238 82.3893 23.8197 C 0.0 **** 0.0
6683 C 106.167 82.5252 24.6846 C 0.0 **** 0.0
6684 C 101.671 99.3129 19.9677 C 0.0 **** 0.0
6685 C 102.268 99.3966 21.4289 C 0.0 **** 0.0
6686 C 103.122 101.703 18.9129 C 0.0 **** 0.0
6687 C 102.802 96.5937 19.4465 C 0.0 **** 0.0
6688 C 104.606 101.218 16.3844 C 0.0 **** 0.0
6689 C 108.724 98.7235 14.9476 C 0.0 **** 0.0
6690 C 110.336 96.1926 14.9371 C 0.0 **** 0.0
6691 O 109.779 93.4288 14.8557 O 0.0 **** 0.0
6692 C 112.231 89.608 16.8426 C 0.0 **** 0.0
6693 C 112.092 89.1797 19.6257 C 0.0 **** 0.0
6694 O 108.182 88.2115 19.4141 O 0.0 **** 0.0
6695 O 104.873 92.5992 18.3925 O 0.0 **** 0.0
6696 O 102.888 90.8359 18.6787 O 0.0 **** 0.0
6697 O 105.848 86.8976 19.7704 O 0.0 **** 0.0
6698 C 106.046 81.6295 25.8924 C 0.0 **** 0.0
6699 C 108.247 81.2527 23.824 C 0.0 **** 0.0
6700 H 105.712 96.4332 19.0722 H 0.0 **** 0.0
6701 H 104.808 95.5649 17.7572 H 0.0 **** 0.0
6702 H 105.931 98.8922 15.2569 H 0.0 **** 0.0
6703 H 106.796 99.6238 16.6832 H 0.0 **** 0.0
6704 H 106.397 94.2954 18.8864 H 0.0 **** 0.0
6705 H 109.933 91.8033 19.7349 H 0.0 **** 0.0
6706 H 109.777 90.1326 20.2204 H 0.0 **** 0.0
6707 H 112.051 91.3118 19.852 H 0.0 **** 0.0
6708 H 113.023 91.3712 17.8299 H 0.0 **** 0.0
6709 H 111.539 92.0392 16.1211 H 0.0 **** 0.0
6710 H 111.17 92.9042 17.6746 H 0.0 **** 0.0
6711 H 101.792 90.219 21.3986 H 0.0 **** 0.0
6712 H 101.013 89.4983 19.9838 H 0.0 **** 0.0
6713 H 100.606 87.5008 21.0233 H 0.0 **** 0.0
6714 H 100.649 88.6215 22.4855 H 0.0 **** 0.0
6715 H 100.897 87.1811 24.9759 H 0.0 **** 0.0
6716 H 99.9835 86.7534 23.4782 H 0.0 **** 0.0
6717 H 100.149 84.4029 23.7141 H 0.0 **** 0.0
6718 H 99.4786 85.0808 25.2365 H 0.0 **** 0.0
6719 H 101.171 83.5247 25.922 H 0.0 **** 0.0
6720 H 101.682 85.1307 26.3006 H 0.0 **** 0.0
6721 H 102.501 83.5154 23.8575 H 0.0 **** 0.0
6722 H 104.298 84.5157 26.1394 H 0.0 **** 0.0
6723 H 103.792 82.9121 25.9761 H 0.0 **** 0.0
6724 H 106.608 84.9471 21.7591 H 0.0 **** 0.0
6725 H 108.206 83.3283 22.1197 H 0.0 **** 0.0
6726 H 100.981 98.4752 19.8431 H 0.0 **** 0.0
6727 H 100.998 100.219 19.7392 H 0.0 **** 0.0
6728 H 101.475 99.6782 22.1382 H 0.0 **** 0.0
6729 H 103.147 100.077 21.4429 H 0.0 **** 0.0
6730 H 102.623 98.3725 21.7194 H 0.0 **** 0.0
6731 H 104.062 102.195 19.1581 H 0.0 **** 0.0
6732 H 102.54 101.752 19.8265 H 0.0 **** 0.0
6733 H 102.571 102.27 18.1552 H 0.0 **** 0.0
6734 H 103.605 95.8277 19.7154 H 0.0 **** 0.0
6735 H 102.041 96.0917 18.7932 H 0.0 **** 0.0
6736 H 102.266 96.7552 20.3886 H 0.0 **** 0.0
6737 H 104.511 100.866 15.3378 H 0.0 **** 0.0
6738 H 105.67 101.442 16.5999 H 0.0 **** 0.0
6739 H 104.041 102.153 16.4519 H 0.0 **** 0.0
6740 H 109.464 98.604 14.1375 H 0.0 **** 0.0
6741 H 109.176 99.3907 15.7148 H 0.0 **** 0.0
6742 H 107.937 99.3526 14.55 H 0.0 **** 0.0
6743 H 110.942 95.4289 15.4166 H 0.0 **** 0.0
6744 H 110.89 97.1327 15.0984 H 0.0 **** 0.0
6745 H 110.224 95.9078 13.8622 H 0.0 **** 0.0
6746 H 109.934 92.4592 14.6136 H 0.0 **** 0.0
6747 H 112.992 88.8534 17.205 H 0.0 **** 0.0
6748 H 112.463 89.9935 15.8596 H 0.0 **** 0.0
6749 H 111.251 89.0523 16.8294 H 0.0 **** 0.0
6750 H 111.94 89.0823 20.7427 H 0.0 **** 0.0
6751 H 113.159 89.0918 19.5713 H 0.0 **** 0.0
6752 H 111.541 88.3508 19.1412 H 0.0 **** 0.0
6753 H 107.935 87.8731 20.3208 H 0.0 **** 0.0
6754 H 104.114 92.7633 19.0471 H 0.0 **** 0.0
6755 H 105.826 82.1249 26.8421 H 0.0 **** 0.0
6756 H 106.952 81.0054 26.1523 H 0.0 **** 0.0
6757 H 105.175 80.9983 25.697 H 0.0 **** 0.0
6758 H 108.806 81.2793 24.7836 H 0.0 **** 0.0
6759 H 109.031 81.3405 22.999 H 0.0 **** 0.0
6760 H 107.807 80.2631 23.6985 H 0.0 **** 0.0
6761 C 2.41633 99.8038 54.4376 C 0.0 **** 0.0
6762 C 3.86857 99.8774 54.4035 C 0.0 **** 0.0
6763 C 4.61881 99.2225 55.4282 C 0.0 **** 0.0
6764 C 3.9517 98.3658 56.352 C 0.0 **** 0.0
6765 C 2.55175 98.0932 56.1716 C 0.0 **** 0.0
6766 C 1.76745 98.9428 55.3608 C 0.0 **** 0.0
6767 C 4.7949 97.7609 57.486 C 0.0 **** 0.0
6768 C 6.04885 98.5444 57.8521 C 0.0 **** 0.0
6769 C 6.68552 99.2958 56.8372 C 0.0 **** 0.0
6770 C 6.09973 99.2288 55.4628 C 0.0 **** 0.0
6771 C 7.81412 100.028 57.1281 C 0.0 **** 0.0
6772 C 8.12895 100.287 58.5071 C 0.0 **** 0.0
6773 C 7.53555 99.5265 59.5376 C 0.0 **** 0.0
6774 C 6.48904 98.6094 59.2196 C 0.0 **** 0.0
6775 C 5.90521 97.8603 60.2478 C 0.0 **** 0.0
6776 C 6.38129 97.9769 61.5906 C 0.0 **** 0.0
6777 C 7.32223 99.0205 61.8881 C 0.0 **** 0.0
6778 C 8.05948 99.6287 60.8595 C 0.0 **** 0.0
6779 C 7.51775 99.5109 63.3 C 0.0 **** 0.0
6780 C 6.8265 98.6512 64.3619 C 0.0 **** 0.0
6781 C 6.57816 97.2602 63.8974 C 0.0 **** 0.0
6782 C 6.21151 96.971 62.5735 C 0.0 **** 0.0
6783 C 5.53739 99.2909 64.9422 C 0.0 **** 0.0
6784 C 4.80517 100.067 63.8362 C 0.0 **** 0.0
6785 C 5.55491 101.247 63.3796 C 0.0 **** 0.0
6786 C 7.09258 100.978 63.4778 C 0.0 **** 0.0
6787 C 5.84196 95.6148 62.2919 C 0.0 **** 0.0
6788 C 5.72179 94.6377 63.315 C 0.0 **** 0.0
6789 C 6.13738 94.971 64.6457 C 0.0 **** 0.0
6790 C 6.72199 96.2562 64.8535 C 0.0 **** 0.0
6791 C 5.80453 94.0342 65.7444 C 0.0 **** 0.0
6792 C 5.52857 92.6358 65.3942 C 0.0 **** 0.0
6793 C 5.33719 92.2344 64.0635 C 0.0 **** 0.0
6794 C 5.17954 93.2622 63.027 C 0.0 **** 0.0
6795 C 5.27915 90.766 63.6959 C 0.0 **** 0.0
6796 C 4.44996 90.0915 64.7278 C 0.0 **** 0.0
6797 C 4.90703 90.3987 66.1431 C 0.0 **** 0.0
6798 C 5.34589 91.6913 66.435 C 0.0 **** 0.0
6799 N 5.67982 92.0154 67.7112 N 0.0 **** 0.0
6800 C 5.60753 91.1851 68.7677 C 0.0 **** 0.0
6801 C 5.19734 89.8591 68.5379 C 0.0 **** 0.0
6802 C 4.89376 89.4357 67.1942 C 0.0 **** 0.0
6803 C 4.58965 87.9773 66.9015 C 0.0 **** 0.0
6804 C 4.58847 87.0607 68.1094 C 0.0 **** 0.0
6805 C 4.25657 87.7385 69.3761 C 0.0 **** 0.0
6806 C 5.17525 88.8915 69.6665 C 0.0 **** 0.0
6807 C 4.81259 89.5352 71.0262 C 0.0 **** 0.0
6808 C 5.71454 90.755 71.2045 C 0.0 **** 0.0
6809 C 5.98398 91.5901 70.0638 C 0.0 **** 0.0
6810 C 6.68009 92.796 70.2685 C 0.0 **** 0.0
6811 C 7.22904 93.0978 71.524 C 0.0 **** 0.0
6812 C 6.95389 92.3159 72.6574 C 0.0 **** 0.0
6813 C 6.21624 91.1294 72.5254 C 0.0 **** 0.0
6814 C 0.249827 98.9771 55.5027 C 0.0 **** 0.0
6815 C -0.101881 100.134 56.4872 C 0.0 **** 0.0
6816 C 1.60796 100.578 53.4276 C 0.0 **** 0.0
6817 C 1.93064 96.9343 56.9171 C 0.0 **** 0.0
6818 C 4.51257 100.5 53.171 C 0.0 **** 0.0
6819 C 8.69866 100.563 55.9834 C 0.0 **** 0.0
6820 C 9.03582 101.501 58.7866 C 0.0 **** 0.0
6821 O 9.25776 100.32 61.1412 O 0.0 **** 0.0
6822 C 5.21863 102.558 64.0612 C 0.0 **** 0.0
6823 C 3.359 100.414 64.2395 C 0.0 **** 0.0
6824 O 7.23055 96.6257 66.0982 O 0.0 **** 0.0
6825 O 5.71371 95.2114 60.9875 O 0.0 **** 0.0
6826 O 4.48341 93.0624 62.0198 O 0.0 **** 0.0
6827 O 5.70653 94.4149 66.9096 O 0.0 **** 0.0
6828 C 5.96392 90.2404 73.7246 C 0.0 **** 0.0
6829 C 7.5308 92.8181 73.95 C 0.0 **** 0.0
6830 H 4.13787 97.7229 58.3778 H 0.0 **** 0.0
6831 H 5.09987 96.7182 57.2118 H 0.0 **** 0.0
6832 H 6.55426 98.3185 55.0171 H 0.0 **** 0.0
6833 H 6.47971 100.084 54.9124 H 0.0 **** 0.0
6834 H 5.00778 97.2467 60.1442 H 0.0 **** 0.0
6835 H 4.87864 98.4731 65.3754 H 0.0 **** 0.0
6836 H 5.89339 99.9414 65.7623 H 0.0 **** 0.0
6837 H 4.69845 99.4221 62.9596 H 0.0 **** 0.0
6838 H 5.33681 101.396 62.3361 H 0.0 **** 0.0
6839 H 7.50844 101.33 64.416 H 0.0 **** 0.0
6840 H 7.56528 101.627 62.6913 H 0.0 **** 0.0
6841 H 4.85208 90.5976 62.7163 H 0.0 **** 0.0
6842 H 6.30873 90.3322 63.6605 H 0.0 **** 0.0
6843 H 4.44767 88.996 64.5373 H 0.0 **** 0.0
6844 H 3.3691 90.3995 64.6307 H 0.0 **** 0.0
6845 H 3.56327 87.9048 66.4846 H 0.0 **** 0.0
6846 H 5.25922 87.5683 66.135 H 0.0 **** 0.0
6847 H 5.60202 86.6075 68.153 H 0.0 **** 0.0
6848 H 3.82772 86.2679 67.9545 H 0.0 **** 0.0
6849 H 4.36916 87.0115 70.2055 H 0.0 **** 0.0
6850 H 3.18961 88.0462 69.2794 H 0.0 **** 0.0
6851 H 6.19507 88.4586 69.8153 H 0.0 **** 0.0
6852 H 3.78199 89.8959 70.9669 H 0.0 **** 0.0
6853 H 4.92975 88.7965 71.8644 H 0.0 **** 0.0
6854 H 6.7616 93.5152 69.4519 H 0.0 **** 0.0
6855 H 7.76632 94.0338 71.6039 H 0.0 **** 0.0
6856 H -0.169368 98.0297 55.8654 H 0.0 **** 0.0
6857 H -0.278549 99.0768 54.5388 H 0.0 **** 0.0
6858 H 0.617155 100.966 56.4119 H 0.0 **** 0.0
6859 H -0.0248171 99.6892 57.5219 H 0.0 **** 0.0
6860 H -1.13079 100.524 56.3046 H 0.0 **** 0.0
6861 H 0.659308 100.91 53.8163 H 0.0 **** 0.0
6862 H 1.48443 100.019 52.4549 H 0.0 **** 0.0
6863 H 2.16117 101.533 53.2151 H 0.0 **** 0.0
6864 H 1.2873 97.317 57.7443 H 0.0 **** 0.0
6865 H 2.67417 96.2082 57.3443 H 0.0 **** 0.0
6866 H 1.32693 96.3023 56.2688 H 0.0 **** 0.0
6867 H 5.52592 100.09 52.993 H 0.0 **** 0.0
6868 H 4.54782 101.621 53.2844 H 0.0 **** 0.0
6869 H 3.95793 100.309 52.2358 H 0.0 **** 0.0
6870 H 9.67695 100.839 56.3752 H 0.0 **** 0.0
6871 H 8.29301 101.533 55.5614 H 0.0 **** 0.0
6872 H 8.84809 99.8153 55.2096 H 0.0 **** 0.0
6873 H 8.74348 102.031 59.7254 H 0.0 **** 0.0
6874 H 8.98247 102.234 57.9734 H 0.0 **** 0.0
6875 H 10.0818 101.083 58.8169 H 0.0 **** 0.0
6876 H 9.57679 100.285 62.1034 H 0.0 **** 0.0
6877 H 4.26331 102.979 63.7209 H 0.0 **** 0.0
6878 H 5.97992 103.375 63.8271 H 0.0 **** 0.0
6879 H 5.19764 102.438 65.1166 H 0.0 **** 0.0
6880 H 2.73798 99.5133 64.4648 H 0.0 **** 0.0
6881 H 2.88373 101.06 63.4607 H 0.0 **** 0.0
6882 H 3.31005 101.018 65.1461 H 0.0 **** 0.0
6883 H 7.48584 95.8583 66.7058 H 0.0 **** 0.0
6884 H 6.032 94.2442 60.7611 H 0.0 **** 0.0
6885 H 6.33914 90.6913 74.6523 H 0.0 **** 0.0
6886 H 6.46954 89.2446 73.5693 H 0.0 **** 0.0
6887 H 4.90047 90.1381 73.8793 H 0.0 **** 0.0
6888 H 6.71471 93.0997 74.6934 H 0.0 **** 0.0
6889 H 8.12596 93.7369 73.7424 H 0.0 **** 0.0
6890 H 8.22093 92.1133 74.3977 H 0.0 **** 0.0
6891 C 47.4402 86.0021 83.8561 C 0.0 **** 0.0
6892 C 46.3886 85.9604 84.7926 C 0.0 **** 0.0
6893 C 46.132 87.1221 85.6001 C 0.0 **** 0.0
6894 C 46.7732 88.3399 85.2461 C 0.0 **** 0.0
6895 C 47.6588 88.3953 84.1451 C 0.0 **** 0.0
6896 C 47.9799 87.236 83.4069 C 0.0 **** 0.0
6897 C 46.5912 89.5595 86.1278 C 0.0 **** 0.0
6898 C 45.9951 89.3467 87.5107 C 0.0 **** 0.0
6899 C 45.3933 88.0875 87.8244 C 0.0 **** 0.0
6900 C 45.0813 87.1423 86.6945 C 0.0 **** 0.0
6901 C 45.064 87.7587 89.1992 C 0.0 **** 0.0
6902 C 45.4297 88.6555 90.2337 C 0.0 **** 0.0
6903 C 45.8504 89.9826 89.9288 C 0.0 **** 0.0
6904 C 46.1581 90.277 88.5856 C 0.0 **** 0.0
6905 C 46.6305 91.5935 88.2932 C 0.0 **** 0.0
6906 C 47.1314 92.4684 89.2984 C 0.0 **** 0.0
6907 C 46.7495 92.1752 90.6304 C 0.0 **** 0.0
6908 C 46.0101 91.0099 90.9395 C 0.0 **** 0.0
6909 C 47.2154 93.0641 91.7561 C 0.0 **** 0.0
6910 C 47.9133 94.3656 91.3498 C 0.0 **** 0.0
6911 C 47.7286 94.7987 89.9214 C 0.0 **** 0.0
6912 C 47.5214 93.8002 88.9261 C 0.0 **** 0.0
6913 C 49.3503 94.5722 91.9319 C 0.0 **** 0.0
6914 C 49.3642 94.2932 93.4631 C 0.0 **** 0.0
6915 C 48.4827 93.1905 93.9467 C 0.0 **** 0.0
6916 C 48.0253 92.2416 92.8092 C 0.0 **** 0.0
6917 C 47.7986 94.2171 87.6 C 0.0 **** 0.0
6918 C 47.8648 95.5669 87.2774 C 0.0 **** 0.0
6919 C 47.9806 96.5089 88.266 C 0.0 **** 0.0
6920 C 47.9764 96.142 89.5749 C 0.0 **** 0.0
6921 C 48.0437 97.945 87.8512 C 0.0 **** 0.0
6922 C 48.4757 98.2786 86.5134 C 0.0 **** 0.0
6923 C 48.1305 97.4098 85.4957 C 0.0 **** 0.0
6924 C 47.8323 95.9753 85.8348 C 0.0 **** 0.0
6925 C 48.4223 97.8086 84.0893 C 0.0 **** 0.0
6926 C 48.2623 99.309 83.904 C 0.0 **** 0.0
6927 C 49.0059 100.059 85.0139 C 0.0 **** 0.0
6928 C 49.1111 99.4762 86.2679 C 0.0 **** 0.0
6929 N 49.9516 99.9586 87.1971 N 0.0 **** 0.0
6930 C 50.6136 101.138 87.0125 C 0.0 **** 0.0
6931 C 50.3279 101.922 85.8502 C 0.0 **** 0.0
6932 C 49.4403 101.375 84.881 C 0.0 **** 0.0
6933 C 49.0704 102.199 83.6656 C 0.0 **** 0.0
6934 C 49.2154 103.694 83.9206 C 0.0 **** 0.0
6935 C 50.6562 103.965 84.3993 C 0.0 **** 0.0
6936 C 50.9619 103.27 85.7423 C 0.0 **** 0.0
6937 C 52.4703 103.147 86.046 C 0.0 **** 0.0
6938 C 52.7299 102.422 87.3766 C 0.0 **** 0.0
6939 C 51.7579 101.454 87.7801 C 0.0 **** 0.0
6940 C 52.0881 100.656 88.9054 C 0.0 **** 0.0
6941 C 53.363 100.714 89.5202 C 0.0 **** 0.0
6942 C 54.3213 101.618 89.0898 C 0.0 **** 0.0
6943 C 53.9736 102.531 88.0581 C 0.0 **** 0.0
6944 C 49.0644 87.2614 82.3083 C 0.0 **** 0.0
6945 C 50.4542 87.3884 82.9019 C 0.0 **** 0.0
6946 C 48.0617 84.7087 83.4754 C 0.0 **** 0.0
6947 C 48.2056 89.7824 83.7544 C 0.0 **** 0.0
6948 C 45.5204 84.7461 85.006 C 0.0 **** 0.0
6949 C 44.1898 86.5198 89.5773 C 0.0 **** 0.0
6950 C 45.4122 88.1759 91.6516 C 0.0 **** 0.0
6951 O 45.3326 90.8655 92.1837 O 0.0 **** 0.0
6952 C 47.2072 93.6432 94.7383 C 0.0 **** 0.0
6953 C 49.1712 95.6059 94.1716 C 0.0 **** 0.0
6954 O 48.3026 97.0562 90.6133 O 0.0 **** 0.0
6955 O 48.2835 93.2586 86.6836 O 0.0 **** 0.0
6956 O 47.5611 95.1679 84.9537 O 0.0 **** 0.0
6957 O 47.5752 98.8495 88.5236 O 0.0 **** 0.0
6958 C 54.9868 103.517 87.5683 C 0.0 **** 0.0
6959 C 55.7541 101.475 89.6147 C 0.0 **** 0.0
6960 H 47.5883 90.0553 86.3221 H 0.0 **** 0.0
6961 H 45.9968 90.2905 85.5757 H 0.0 **** 0.0
6962 H 44.1615 87.5054 86.2629 H 0.0 **** 0.0
6963 H 45.0372 86.1485 87.0734 H 0.0 **** 0.0
6964 H 46.472 91.9654 87.2901 H 0.0 **** 0.0
6965 H 50.0539 93.9621 91.3793 H 0.0 **** 0.0
6966 H 49.7187 95.6228 91.7462 H 0.0 **** 0.0
6967 H 50.3953 93.994 93.7453 H 0.0 **** 0.0
6968 H 49.0664 92.6322 94.6415 H 0.0 **** 0.0
6969 H 47.4665 91.4066 93.2886 H 0.0 **** 0.0
6970 H 48.9237 91.8487 92.3045 H 0.0 **** 0.0
6971 H 49.495 97.549 83.9023 H 0.0 **** 0.0
6972 H 47.8925 97.2266 83.2978 H 0.0 **** 0.0
6973 H 47.1598 99.5889 84.0129 H 0.0 **** 0.0
6974 H 48.5643 99.6866 82.9081 H 0.0 **** 0.0
6975 H 49.6628 101.959 82.7977 H 0.0 **** 0.0
6976 H 48.0016 101.986 83.3731 H 0.0 **** 0.0
6977 H 48.5157 104.026 84.7507 H 0.0 **** 0.0
6978 H 48.9729 104.285 82.9843 H 0.0 **** 0.0
6979 H 50.7466 105.077 84.5875 H 0.0 **** 0.0
6980 H 51.4086 103.646 83.6065 H 0.0 **** 0.0
6981 H 50.4953 103.807 86.5797 H 0.0 **** 0.0
6982 H 53.0521 102.589 85.2738 H 0.0 **** 0.0
6983 H 52.8571 104.188 86.1041 H 0.0 **** 0.0
6984 H 51.3645 99.9401 89.231 H 0.0 **** 0.0
6985 H 53.6079 100.066 90.3259 H 0.0 **** 0.0
6986 H 48.9093 88.1641 81.6122 H 0.0 **** 0.0
6987 H 49.0432 86.3534 81.6468 H 0.0 **** 0.0
6988 H 50.8383 86.5349 83.4338 H 0.0 **** 0.0
6989 H 50.4636 88.3691 83.5376 H 0.0 **** 0.0
6990 H 51.2115 87.6447 82.1473 H 0.0 **** 0.0
6991 H 47.7911 84.4311 82.464 H 0.0 **** 0.0
6992 H 47.8916 83.8961 84.1743 H 0.0 **** 0.0
6993 H 49.1546 84.8829 83.4596 H 0.0 **** 0.0
6994 H 48.9679 90.0893 84.5172 H 0.0 **** 0.0
6995 H 47.3759 90.5172 83.7438 H 0.0 **** 0.0
6996 H 48.725 89.9006 82.7431 H 0.0 **** 0.0
6997 H 45.7134 84.2891 85.9344 H 0.0 **** 0.0
6998 H 45.6906 83.9314 84.2922 H 0.0 **** 0.0
6999 H 44.4515 85.0736 84.9895 H 0.0 **** 0.0
7000 H 43.4819 86.7191 90.4177 H 0.0 **** 0.0
7001 H 44.9024 85.6613 89.7927 H 0.0 **** 0.0
7002 H 43.5508 86.1891 88.6864 H 0.0 **** 0.0
7003 H 46.3051 88.5004 92.1946 H 0.0 **** 0.0
7004 H 45.4649 87.0848 91.7611 H 0.0 **** 0.0
7005 H 44.5081 88.5175 92.2096 H 0.0 **** 0.0
7006 H 45.296 91.7001 92.7855 H 0.0 **** 0.0
7007 H 47.3938 94.0039 95.7778 H 0.0 **** 0.0
7008 H 46.5168 92.8018 94.9461 H 0.0 **** 0.0
7009 H 46.663 94.3828 94.195 H 0.0 **** 0.0
7010 H 49.8321 96.3778 93.8095 H 0.0 **** 0.0
7011 H 49.2106 95.4607 95.2904 H 0.0 **** 0.0
7012 H 48.1686 96.0395 93.9827 H 0.0 **** 0.0
7013 H 48.7326 97.939 90.3706 H 0.0 **** 0.0
7014 H 49.0509 93.5301 86.1233 H 0.0 **** 0.0
7015 H 55.141 103.257 86.5051 H 0.0 **** 0.0
7016 H 56.0061 103.434 87.9877 H 0.0 **** 0.0
7017 H 54.6492 104.548 87.674 H 0.0 **** 0.0
7018 H 56.3886 101.176 88.7815 H 0.0 **** 0.0
7019 H 55.8386 100.726 90.4575 H 0.0 **** 0.0
7020 H 56.1344 102.436 90.0265 H 0.0 **** 0.0
7021 C 47.0418 30.4288 92.2623 C 0.0 **** 0.0
7022 C 46.0988 29.4322 91.7792 C 0.0 **** 0.0
7023 C 45.806 28.3495 92.6197 C 0.0 **** 0.0
7024 C 46.4548 28.2011 93.8293 C 0.0 **** 0.0
7025 C 47.5304 29.0213 94.2169 C 0.0 **** 0.0
7026 C 47.77 30.2029 93.4519 C 0.0 **** 0.0
7027 C 46.0894 27.092 94.7607 C 0.0 **** 0.0
7028 C 44.7146 26.4644 94.5606 C 0.0 **** 0.0
7029 C 44.1659 26.5197 93.273 C 0.0 **** 0.0
7030 C 44.722 27.425 92.2164 C 0.0 **** 0.0
7031 C 43.1432 25.6576 92.8947 C 0.0 **** 0.0
7032 C 42.6055 24.7379 93.8416 C 0.0 **** 0.0
7033 C 42.9811 24.9027 95.2054 C 0.0 **** 0.0
7034 C 44.1321 25.6738 95.5541 C 0.0 **** 0.0
7035 C 44.7013 25.5815 96.8248 C 0.0 **** 0.0
7036 C 44.0741 24.8933 97.8617 C 0.0 **** 0.0
7037 C 42.9754 24.0216 97.4969 C 0.0 **** 0.0
7038 C 42.3208 24.1935 96.2375 C 0.0 **** 0.0
7039 C 42.5488 22.8732 98.3578 C 0.0 **** 0.0
7040 C 43.3685 22.7307 99.6527 C 0.0 **** 0.0
7041 C 43.9657 24.0711 100.138 C 0.0 **** 0.0
7042 C 44.3669 25.0685 99.2544 C 0.0 **** 0.0
7043 C 44.4175 21.5842 99.7151 C 0.0 **** 0.0
7044 C 44.0239 20.1811 99.127 C 0.0 **** 0.0
7045 C 42.7071 20.2469 98.3777 C 0.0 **** 0.0
7046 C 42.5913 21.512 97.5566 C 0.0 **** 0.0
7047 C 45.0666 26.1949 99.7258 C 0.0 **** 0.0
7048 C 45.288 26.3551 101.125 C 0.0 **** 0.0
7049 C 44.8549 25.4124 102.065 C 0.0 **** 0.0
7050 C 44.258 24.196 101.542 C 0.0 **** 0.0
7051 C 45.1058 25.5978 103.503 C 0.0 **** 0.0
7052 C 45.403 26.9814 103.985 C 0.0 **** 0.0
7053 C 45.8054 27.9324 103.062 C 0.0 **** 0.0
7054 C 45.9495 27.5681 101.668 C 0.0 **** 0.0
7055 C 46.1976 29.3113 103.515 C 0.0 **** 0.0
7056 C 45.3885 29.8245 104.7 C 0.0 **** 0.0
7057 C 45.0571 28.746 105.66 C 0.0 **** 0.0
7058 C 45.053 27.4099 105.296 C 0.0 **** 0.0
7059 N 44.7504 26.4381 106.257 N 0.0 **** 0.0
7060 C 44.6641 26.7521 107.583 C 0.0 **** 0.0
7061 C 44.7702 28.1074 107.971 C 0.0 **** 0.0
7062 C 44.8663 29.1112 106.995 C 0.0 **** 0.0
7063 C 44.6614 30.6063 107.342 C 0.0 **** 0.0
7064 C 44.0688 30.8462 108.77 C 0.0 **** 0.0
7065 C 44.7479 29.9383 109.798 C 0.0 **** 0.0
7066 C 44.4225 28.4813 109.387 C 0.0 **** 0.0
7067 C 45.1312 27.5288 110.331 C 0.0 **** 0.0
7068 C 44.8398 26.0737 109.945 C 0.0 **** 0.0
7069 C 44.5849 25.7368 108.59 C 0.0 **** 0.0
7070 C 44.3278 24.4041 108.329 C 0.0 **** 0.0
7071 C 44.1582 23.4636 109.334 C 0.0 **** 0.0
7072 C 44.4229 23.7907 110.653 C 0.0 **** 0.0
7073 C 44.8272 25.1318 111.01 C 0.0 **** 0.0
7074 C 48.8149 31.2239 93.9496 C 0.0 **** 0.0
7075 C 50.2146 30.8613 93.545 C 0.0 **** 0.0
7076 C 47.3581 31.6626 91.4751 C 0.0 **** 0.0
7077 C 48.413 28.6395 95.3706 C 0.0 **** 0.0
7078 C 45.3273 29.6359 90.4594 C 0.0 **** 0.0
7079 C 42.629 25.605 91.4625 C 0.0 **** 0.0
7080 C 41.8809 23.4855 93.3814 C 0.0 **** 0.0
7081 O 40.9849 23.7806 96.033 O 0.0 **** 0.0
7082 C 41.4329 19.9911 99.2149 C 0.0 **** 0.0
7083 C 44.0355 19.0252 100.099 C 0.0 **** 0.0
7084 O 43.8524 23.0976 102.331 O 0.0 **** 0.0
7085 O 45.4396 27.205 98.8496 O 0.0 **** 0.0
7086 O 46.6718 28.2509 100.968 O 0.0 **** 0.0
7087 O 44.9771 24.6981 104.306 O 0.0 **** 0.0
7088 C 45.4195 25.4613 112.375 C 0.0 **** 0.0
7089 C 44.4531 22.6496 111.647 C 0.0 **** 0.0
7090 H 46.8629 26.2953 94.7402 H 0.0 **** 0.0
7091 H 46.0683 27.5474 95.7199 H 0.0 **** 0.0
7092 H 43.8882 28.122 91.9292 H 0.0 **** 0.0
7093 H 45.0213 26.8756 91.3255 H 0.0 **** 0.0
7094 H 45.6894 25.9127 96.9527 H 0.0 **** 0.0
7095 H 45.3713 21.8675 99.1988 H 0.0 **** 0.0
7096 H 44.6492 21.4352 100.793 H 0.0 **** 0.0
7097 H 44.8296 19.9525 98.4103 H 0.0 **** 0.0
7098 H 42.6708 19.4502 97.6591 H 0.0 **** 0.0
7099 H 41.7404 21.4157 96.882 H 0.0 **** 0.0
7100 H 43.5046 21.5146 96.9433 H 0.0 **** 0.0
7101 H 47.2603 29.3418 103.665 H 0.0 **** 0.0
7102 H 45.9975 30.056 102.686 H 0.0 **** 0.0
7103 H 44.4755 30.4065 104.45 H 0.0 **** 0.0
7104 H 46.0461 30.5951 105.188 H 0.0 **** 0.0
7105 H 45.5784 31.2472 107.242 H 0.0 **** 0.0
7106 H 43.8907 31.0666 106.643 H 0.0 **** 0.0
7107 H 42.99 30.6502 108.751 H 0.0 **** 0.0
7108 H 44.2036 31.9124 109.03 H 0.0 **** 0.0
7109 H 44.2532 30.1554 110.745 H 0.0 **** 0.0
7110 H 45.827 30.1279 109.909 H 0.0 **** 0.0
7111 H 43.303 28.3546 109.507 H 0.0 **** 0.0
7112 H 46.1971 27.6932 110.273 H 0.0 **** 0.0
7113 H 44.6855 27.7878 111.338 H 0.0 **** 0.0
7114 H 44.2273 24.0931 107.323 H 0.0 **** 0.0
7115 H 43.7601 22.4789 109.076 H 0.0 **** 0.0
7116 H 48.7875 31.3253 95.065 H 0.0 **** 0.0
7117 H 48.5795 32.2457 93.5992 H 0.0 **** 0.0
7118 H 50.446 29.8287 93.8093 H 0.0 **** 0.0
7119 H 50.9224 31.4983 94.0229 H 0.0 **** 0.0
7120 H 50.3643 31.1063 92.4616 H 0.0 **** 0.0
7121 H 47.0635 31.6609 90.3983 H 0.0 **** 0.0
7122 H 48.4203 31.896 91.4856 H 0.0 **** 0.0
7123 H 46.91 32.5518 91.9859 H 0.0 **** 0.0
7124 H 48.8199 27.6114 95.2308 H 0.0 **** 0.0
7125 H 49.2723 29.2345 95.6103 H 0.0 **** 0.0
7126 H 47.788 28.6157 96.2761 H 0.0 **** 0.0
7127 H 44.7511 28.7546 90.1235 H 0.0 **** 0.0
7128 H 46.0607 29.7964 89.6232 H 0.0 **** 0.0
7129 H 44.6778 30.5123 90.5112 H 0.0 **** 0.0
7130 H 41.5864 25.2016 91.4536 H 0.0 **** 0.0
7131 H 43.2408 25.0243 90.8201 H 0.0 **** 0.0
7132 H 42.4806 26.6081 91.0225 H 0.0 **** 0.0
7133 H 42.0645 22.61 94.054 H 0.0 **** 0.0
7134 H 42.297 23.1723 92.3851 H 0.0 **** 0.0
7135 H 40.7944 23.6527 93.3862 H 0.0 **** 0.0
7136 H 40.4985 23.4914 96.8616 H 0.0 **** 0.0
7137 H 41.2326 18.9287 99.4309 H 0.0 **** 0.0
7138 H 40.5567 20.3547 98.635 H 0.0 **** 0.0
7139 H 41.43 20.5331 100.188 H 0.0 **** 0.0
7140 H 45.0707 18.8028 100.355 H 0.0 **** 0.0
7141 H 43.535 18.1595 99.6684 H 0.0 **** 0.0
7142 H 43.5456 19.3582 101.022 H 0.0 **** 0.0
7143 H 43.5138 23.3004 103.219 H 0.0 **** 0.0
7144 H 45.1119 28.1097 99.0936 H 0.0 **** 0.0
7145 H 44.641 25.8398 113.1 H 0.0 **** 0.0
7146 H 46.2249 26.2546 112.32 H 0.0 **** 0.0
7147 H 45.9216 24.5836 112.777 H 0.0 **** 0.0
7148 H 45.5179 22.2744 111.788 H 0.0 **** 0.0
7149 H 43.8455 21.8054 111.281 H 0.0 **** 0.0
7150 H 44.1088 22.9621 112.656 H 0.0 **** 0.0
7151 C 65.7549 101.185 98.0167 C 0.0 **** 0.0
7152 C 65.6139 102.546 97.5912 C 0.0 **** 0.0
7153 C 66.7151 103.213 97.0787 C 0.0 **** 0.0
7154 C 67.8833 102.538 96.6985 C 0.0 **** 0.0
7155 C 68.0773 101.206 97.1992 C 0.0 **** 0.0
7156 C 67.0194 100.545 97.8147 C 0.0 **** 0.0
7157 C 68.8758 103.261 95.7718 C 0.0 **** 0.0
7158 C 69.1007 104.686 96.2307 C 0.0 **** 0.0
7159 C 68.0068 105.32 96.8966 C 0.0 **** 0.0
7160 C 66.6083 104.678 96.82 C 0.0 **** 0.0
7161 C 68.2726 106.527 97.5735 C 0.0 **** 0.0
7162 C 69.6256 106.977 97.7032 C 0.0 **** 0.0
7163 C 70.6175 106.47 96.7975 C 0.0 **** 0.0
7164 C 70.3125 105.366 96.0113 C 0.0 **** 0.0
7165 C 71.2445 104.99 95.0228 C 0.0 **** 0.0
7166 C 72.5328 105.573 94.9394 C 0.0 **** 0.0
7167 C 72.8815 106.508 95.9282 C 0.0 **** 0.0
7168 C 71.8846 107.068 96.7609 C 0.0 **** 0.0
7169 C 74.2371 107.188 95.9153 C 0.0 **** 0.0
7170 C 75.2624 106.678 94.8478 C 0.0 **** 0.0
7171 C 74.5463 106.19 93.6079 C 0.0 **** 0.0
7172 C 73.4669 105.318 93.8316 C 0.0 **** 0.0
7173 C 76.2236 105.585 95.3858 C 0.0 **** 0.0
7174 C 75.6372 104.891 96.5864 C 0.0 **** 0.0
7175 C 75.4308 105.84 97.7363 C 0.0 **** 0.0
7176 C 74.9536 107.246 97.3021 C 0.0 **** 0.0
7177 C 73.3831 104.21 92.9523 C 0.0 **** 0.0
7178 C 73.9905 104.231 91.696 C 0.0 **** 0.0
7179 C 74.9417 105.209 91.4051 C 0.0 **** 0.0
7180 C 75.2666 106.152 92.3981 C 0.0 **** 0.0
7181 C 75.7929 105.105 90.1574 C 0.0 **** 0.0
7182 C 75.721 103.933 89.2355 C 0.0 **** 0.0
7183 C 74.7309 102.98 89.5012 C 0.0 **** 0.0
7184 C 73.717 103.252 90.5716 C 0.0 **** 0.0
7185 C 74.634 101.83 88.5106 C 0.0 **** 0.0
7186 C 76.0238 101.433 87.9375 C 0.0 **** 0.0
7187 C 76.7479 102.619 87.3498 C 0.0 **** 0.0
7188 C 76.5454 103.84 88.0162 C 0.0 **** 0.0
7189 N 77.1233 104.989 87.5159 N 0.0 **** 0.0
7190 C 77.8914 104.977 86.3594 C 0.0 **** 0.0
7191 C 78.0201 103.787 85.6189 C 0.0 **** 0.0
7192 C 77.4314 102.592 86.1107 C 0.0 **** 0.0
7193 C 77.5223 101.288 85.3228 C 0.0 **** 0.0
7194 C 78.3359 101.326 84.0531 C 0.0 **** 0.0
7195 C 79.4882 102.362 84.1323 C 0.0 **** 0.0
7196 C 78.8379 103.75 84.352 C 0.0 **** 0.0
7197 C 79.9237 104.819 84.4111 C 0.0 **** 0.0
7198 C 79.3035 106.188 84.7831 C 0.0 **** 0.0
7199 C 78.3145 106.191 85.796 C 0.0 **** 0.0
7200 C 77.7008 107.432 86.1777 C 0.0 **** 0.0
7201 C 77.9776 108.583 85.4422 C 0.0 **** 0.0
7202 C 78.8942 108.575 84.3756 C 0.0 **** 0.0
7203 C 79.5813 107.356 84.0531 C 0.0 **** 0.0
7204 C 67.1779 99.1691 98.3803 C 0.0 **** 0.0
7205 C 67.9317 99.2315 99.7035 C 0.0 **** 0.0
7206 C 64.6489 100.479 98.7614 C 0.0 **** 0.0
7207 C 69.3442 100.47 96.8802 C 0.0 **** 0.0
7208 C 64.2154 103.208 97.4921 C 0.0 **** 0.0
7209 C 67.1485 107.375 98.1435 C 0.0 **** 0.0
7210 C 69.9516 107.752 98.9346 C 0.0 **** 0.0
7211 O 72.0274 108.339 97.3028 O 0.0 **** 0.0
7212 C 76.6141 106.018 98.7061 C 0.0 **** 0.0
7213 C 76.4087 103.574 96.9907 C 0.0 **** 0.0
7214 O 76.4762 106.819 92.2583 O 0.0 **** 0.0
7215 O 72.771 103.066 93.4008 O 0.0 **** 0.0
7216 O 72.6574 102.616 90.5443 O 0.0 **** 0.0
7217 O 76.606 105.997 89.8697 O 0.0 **** 0.0
7218 C 80.6814 107.363 83.0043 C 0.0 **** 0.0
7219 C 79.0063 109.816 83.496 C 0.0 **** 0.0
7220 H 69.8236 102.705 95.6389 H 0.0 **** 0.0
7221 H 68.3808 103.358 94.7554 H 0.0 **** 0.0
7222 H 66.2635 104.813 95.7717 H 0.0 **** 0.0
7223 H 65.8831 105.222 97.4719 H 0.0 **** 0.0
7224 H 70.8845 104.333 94.2047 H 0.0 **** 0.0
7225 H 76.4396 104.833 94.6173 H 0.0 **** 0.0
7226 H 77.2068 105.951 95.6096 H 0.0 **** 0.0
7227 H 74.6143 104.526 96.2752 H 0.0 **** 0.0
7228 H 74.6445 105.309 98.3387 H 0.0 **** 0.0
7229 H 75.8054 107.914 97.1806 H 0.0 **** 0.0
7230 H 74.3314 107.64 98.1111 H 0.0 **** 0.0
7231 H 74.0827 100.983 89.0491 H 0.0 **** 0.0
7232 H 73.9152 102.109 87.686 H 0.0 **** 0.0
7233 H 75.9233 100.654 87.1599 H 0.0 **** 0.0
7234 H 76.5749 100.925 88.7616 H 0.0 **** 0.0
7235 H 78.017 100.582 85.9945 H 0.0 **** 0.0
7236 H 76.5432 100.881 85.0789 H 0.0 **** 0.0
7237 H 77.7418 101.488 83.1033 H 0.0 **** 0.0
7238 H 78.8525 100.35 83.8883 H 0.0 **** 0.0
7239 H 80.0603 102.381 83.2026 H 0.0 **** 0.0
7240 H 80.1634 102.084 84.9627 H 0.0 **** 0.0
7241 H 78.1446 103.936 83.4684 H 0.0 **** 0.0
7242 H 80.6014 104.558 85.2547 H 0.0 **** 0.0
7243 H 80.5372 104.796 83.5108 H 0.0 **** 0.0
7244 H 76.9752 107.583 86.9794 H 0.0 **** 0.0
7245 H 77.4143 109.5 85.6681 H 0.0 **** 0.0
7246 H 67.6866 98.4201 97.6526 H 0.0 **** 0.0
7247 H 66.2092 98.6367 98.6095 H 0.0 **** 0.0
7248 H 67.6207 100.071 100.396 H 0.0 **** 0.0
7249 H 68.9719 99.3067 99.555 H 0.0 **** 0.0
7250 H 67.857 98.3116 100.341 H 0.0 **** 0.0
7251 H 63.7573 101.118 98.9557 H 0.0 **** 0.0
7252 H 65.0802 100.197 99.7832 H 0.0 **** 0.0
7253 H 64.3521 99.6688 98.1602 H 0.0 **** 0.0
7254 H 70.171 101.029 97.383 H 0.0 **** 0.0
7255 H 69.4922 100.408 95.8069 H 0.0 **** 0.0
7256 H 69.4543 99.397 97.1823 H 0.0 **** 0.0
7257 H 63.4517 102.488 97.3403 H 0.0 **** 0.0
7258 H 64.2221 103.786 96.5476 H 0.0 **** 0.0
7259 H 64.0502 103.805 98.3886 H 0.0 **** 0.0
7260 H 67.4353 108.366 98.4401 H 0.0 **** 0.0
7261 H 66.8049 106.912 99.0629 H 0.0 **** 0.0
7262 H 66.3751 107.526 97.3349 H 0.0 **** 0.0
7263 H 70.8988 107.4 99.3915 H 0.0 **** 0.0
7264 H 69.1832 107.609 99.7608 H 0.0 **** 0.0
7265 H 70.0545 108.819 98.722 H 0.0 **** 0.0
7266 H 72.5818 108.953 96.7413 H 0.0 **** 0.0
7267 H 76.8153 105.053 99.2477 H 0.0 **** 0.0
7268 H 76.4385 106.832 99.4249 H 0.0 **** 0.0
7269 H 77.5204 106.323 98.1857 H 0.0 **** 0.0
7270 H 76.266 102.823 96.2002 H 0.0 **** 0.0
7271 H 75.9603 103.162 97.9157 H 0.0 **** 0.0
7272 H 77.4361 103.798 97.2176 H 0.0 **** 0.0
7273 H 76.6446 107.568 92.8987 H 0.0 **** 0.0
7274 H 72.8189 102.276 92.7796 H 0.0 **** 0.0
7275 H 81.588 106.934 83.4373 H 0.0 **** 0.0
7276 H 80.9286 108.413 82.6985 H 0.0 **** 0.0
7277 H 80.309 106.816 82.0954 H 0.0 **** 0.0
7278 H 79.9485 110.328 83.6146 H 0.0 **** 0.0
7279 H 78.2732 110.577 83.8761 H 0.0 **** 0.0
7280 H 78.8486 109.495 82.44 H 0.0 **** 0.0
7281 C 24.4888 37.9855 69.0793 C 0.0 **** 0.0
7282 C 25.2576 38.2932 70.2298 C 0.0 **** 0.0
7283 C 25.2886 39.6165 70.702 C 0.0 **** 0.0
7284 C 24.3367 40.548 70.2483 C 0.0 **** 0.0
7285 C 23.345 40.1653 69.3261 C 0.0 **** 0.0
7286 C 23.4073 38.8838 68.6787 C 0.0 **** 0.0
7287 C 24.3512 41.9275 70.7601 C 0.0 **** 0.0
7288 C 25.6356 42.3905 71.4463 C 0.0 **** 0.0
7289 C 26.6463 41.4714 71.7961 C 0.0 **** 0.0
7290 C 26.3567 40.0068 71.7106 C 0.0 **** 0.0
7291 C 27.8773 41.9607 72.3177 C 0.0 **** 0.0
7292 C 28.0771 43.3571 72.4803 C 0.0 **** 0.0
7293 C 27.0912 44.2776 72.0003 C 0.0 **** 0.0
7294 C 25.7897 43.7743 71.7212 C 0.0 **** 0.0
7295 C 24.6786 44.6427 71.6047 C 0.0 **** 0.0
7296 C 24.8846 46.0282 71.737 C 0.0 **** 0.0
7297 C 26.1908 46.4944 71.9125 C 0.0 **** 0.0
7298 C 27.3179 45.6562 71.9741 C 0.0 **** 0.0
7299 C 26.4292 47.992 71.91 C 0.0 **** 0.0
7300 C 25.3754 48.6973 72.8012 C 0.0 **** 0.0
7301 C 23.986 48.1122 72.6559 C 0.0 **** 0.0
7302 C 23.8095 46.948 71.8903 C 0.0 **** 0.0
7303 C 25.5146 50.3006 72.6316 C 0.0 **** 0.0
7304 C 25.7054 50.7425 71.1729 C 0.0 **** 0.0
7305 C 26.7051 49.9968 70.4164 C 0.0 **** 0.0
7306 C 26.3473 48.4866 70.4629 C 0.0 **** 0.0
7307 C 22.5299 46.7082 71.3614 C 0.0 **** 0.0
7308 C 21.4186 47.1987 72.039 C 0.0 **** 0.0
7309 C 21.6127 47.8996 73.2326 C 0.0 **** 0.0
7310 C 22.9046 48.4226 73.5172 C 0.0 **** 0.0
7311 C 20.4277 48.3468 74.0124 C 0.0 **** 0.0
7312 C 19.0548 48.1812 73.4823 C 0.0 **** 0.0
7313 C 18.8683 47.5177 72.2263 C 0.0 **** 0.0
7314 C 20.0609 46.9767 71.4787 C 0.0 **** 0.0
7315 C 17.5283 47.6054 71.5533 C 0.0 **** 0.0
7316 C 16.4829 47.2083 72.5873 C 0.0 **** 0.0
7317 C 16.6594 48.0071 73.8679 C 0.0 **** 0.0
7318 C 17.9221 48.5172 74.2363 C 0.0 **** 0.0
7319 N 18.0026 49.3667 75.3065 N 0.0 **** 0.0
7320 C 16.9073 49.6865 76.0749 C 0.0 **** 0.0
7321 C 15.6714 49.077 75.7788 C 0.0 **** 0.0
7322 C 15.5691 48.1615 74.7092 C 0.0 **** 0.0
7323 C 14.211 47.4617 74.3505 C 0.0 **** 0.0
7324 C 13.1142 47.6564 75.3802 C 0.0 **** 0.0
7325 C 13.1083 49.0786 75.9118 C 0.0 **** 0.0
7326 C 14.4507 49.3062 76.6556 C 0.0 **** 0.0
7327 C 14.476 50.7879 77.1067 C 0.0 **** 0.0
7328 C 15.8071 51.1019 77.7721 C 0.0 **** 0.0
7329 C 16.9823 50.6266 77.127 C 0.0 **** 0.0
7330 C 18.2508 51.1518 77.4813 C 0.0 **** 0.0
7331 C 18.3322 52.2196 78.3499 C 0.0 **** 0.0
7332 C 17.241 52.571 79.1418 C 0.0 **** 0.0
7333 C 15.9334 52.039 78.8127 C 0.0 **** 0.0
7334 C 22.5374 38.4761 67.523 C 0.0 **** 0.0
7335 C 22.9394 39.3319 66.2952 C 0.0 **** 0.0
7336 C 24.8471 36.7764 68.2635 C 0.0 **** 0.0
7337 C 22.1418 41.0518 69.0561 C 0.0 **** 0.0
7338 C 26.0067 37.1562 70.8904 C 0.0 **** 0.0
7339 C 29.0076 40.9546 72.537 C 0.0 **** 0.0
7340 C 29.2691 43.8048 73.3297 C 0.0 **** 0.0
7341 O 28.6233 46.1822 71.8128 O 0.0 **** 0.0
7342 C 28.1888 50.261 70.7235 C 0.0 **** 0.0
7343 C 26.0037 52.2772 71.0726 C 0.0 **** 0.0
7344 O 23.0646 49.214 74.6663 O 0.0 **** 0.0
7345 O 22.3974 46.0983 70.1108 O 0.0 **** 0.0
7346 O 19.8718 46.4549 70.3571 O 0.0 **** 0.0
7347 O 20.6077 48.8148 75.1313 O 0.0 **** 0.0
7348 C 14.7121 52.5406 79.5433 C 0.0 **** 0.0
7349 C 17.4694 53.592 80.1851 C 0.0 **** 0.0
7350 H 24.1077 42.588 69.9068 H 0.0 **** 0.0
7351 H 23.5212 42.039 71.5094 H 0.0 **** 0.0
7352 H 26.0037 39.6154 72.6685 H 0.0 **** 0.0
7353 H 27.2703 39.4571 71.4276 H 0.0 **** 0.0
7354 H 23.6046 44.2829 71.5595 H 0.0 **** 0.0
7355 H 24.572 50.8231 72.9563 H 0.0 **** 0.0
7356 H 26.3105 50.689 73.359 H 0.0 **** 0.0
7357 H 24.6829 50.6463 70.675 H 0.0 **** 0.0
7358 H 26.5501 50.278 69.3643 H 0.0 **** 0.0
7359 H 27.0489 47.9336 69.7997 H 0.0 **** 0.0
7360 H 25.3137 48.2905 70.0419 H 0.0 **** 0.0
7361 H 17.3532 48.6602 71.2006 H 0.0 **** 0.0
7362 H 17.4361 46.8862 70.7378 H 0.0 **** 0.0
7363 H 16.5155 46.134 72.8332 H 0.0 **** 0.0
7364 H 15.5073 47.3817 72.1057 H 0.0 **** 0.0
7365 H 13.8593 47.9459 73.3985 H 0.0 **** 0.0
7366 H 14.3724 46.3921 74.1304 H 0.0 **** 0.0
7367 H 13.2232 46.9048 76.2162 H 0.0 **** 0.0
7368 H 12.1563 47.411 74.85 H 0.0 **** 0.0
7369 H 12.2875 49.2359 76.6316 H 0.0 **** 0.0
7370 H 13.0318 49.7396 75.0419 H 0.0 **** 0.0
7371 H 14.4921 48.6424 77.5356 H 0.0 **** 0.0
7372 H 14.4069 51.4677 76.2522 H 0.0 **** 0.0
7373 H 13.5743 50.9567 77.7676 H 0.0 **** 0.0
7374 H 19.1376 50.8442 76.9222 H 0.0 **** 0.0
7375 H 19.3104 52.7229 78.4272 H 0.0 **** 0.0
7376 H 21.4946 38.6523 67.837 H 0.0 **** 0.0
7377 H 22.587 37.4067 67.2289 H 0.0 **** 0.0
7378 H 23.9715 39.0539 66.0198 H 0.0 **** 0.0
7379 H 22.7826 40.4363 66.5612 H 0.0 **** 0.0
7380 H 22.3314 39.0715 65.4128 H 0.0 **** 0.0
7381 H 24.9804 37.0664 67.209 H 0.0 **** 0.0
7382 H 24.0024 36.0904 68.1787 H 0.0 **** 0.0
7383 H 25.751 36.2285 68.5709 H 0.0 **** 0.0
7384 H 22.4556 41.9297 68.4241 H 0.0 **** 0.0
7385 H 21.6672 41.4394 69.9945 H 0.0 **** 0.0
7386 H 21.3522 40.5744 68.4351 H 0.0 **** 0.0
7387 H 26.354 37.3428 71.9261 H 0.0 **** 0.0
7388 H 26.9873 36.9525 70.4015 H 0.0 **** 0.0
7389 H 25.4147 36.1916 70.9271 H 0.0 **** 0.0
7390 H 28.6015 40.1012 73.1514 H 0.0 **** 0.0
7391 H 29.9577 41.3696 73.0321 H 0.0 **** 0.0
7392 H 29.3104 40.5841 71.5358 H 0.0 **** 0.0
7393 H 30.2536 43.7739 72.808 H 0.0 **** 0.0
7394 H 29.4639 43.152 74.1743 H 0.0 **** 0.0
7395 H 29.1527 44.8043 73.7431 H 0.0 **** 0.0
7396 H 29.2991 45.5281 71.4344 H 0.0 **** 0.0
7397 H 28.5039 51.2097 70.278 H 0.0 **** 0.0
7398 H 28.9407 49.5218 70.3404 H 0.0 **** 0.0
7399 H 28.3719 50.307 71.8313 H 0.0 **** 0.0
7400 H 25.1296 52.8177 71.4774 H 0.0 **** 0.0
7401 H 26.1584 52.6465 70.0508 H 0.0 **** 0.0
7402 H 26.8733 52.662 71.6508 H 0.0 **** 0.0
7403 H 23.9834 49.5297 74.9241 H 0.0 **** 0.0
7404 H 23.2679 45.9569 69.6395 H 0.0 **** 0.0
7405 H 14.0047 53.0618 78.8075 H 0.0 **** 0.0
7406 H 14.9421 53.2726 80.3385 H 0.0 **** 0.0
7407 H 14.3044 51.6378 80.0051 H 0.0 **** 0.0
7408 H 16.9638 54.5583 79.9683 H 0.0 **** 0.0
7409 H 18.5432 53.8001 80.3538 H 0.0 **** 0.0
7410 H 17.1425 53.1297 81.1207 H 0.0 **** 0.0
7411 C 102.388 95.5296 14.9767 C 0.0 **** 0.0
7412 C 103.216 94.3555 15.0051 C 0.0 **** 0.0
7413 C 102.684 93.0983 15.3675 C 0.0 **** 0.0
7414 C 101.365 93.012 15.8785 C 0.0 **** 0.0
7415 C 100.565 94.2124 15.9269 C 0.0 **** 0.0
7416 C 101.051 95.4608 15.4412 C 0.0 **** 0.0
7417 C 100.756 91.676 16.2822 C 0.0 **** 0.0
7418 C 101.593 90.4215 16.0829 C 0.0 **** 0.0
7419 C 102.902 90.505 15.5672 C 0.0 **** 0.0
7420 C 103.531 91.8456 15.2067 C 0.0 **** 0.0
7421 C 103.663 89.3006 15.4772 C 0.0 **** 0.0
7422 C 103.112 88.0547 15.9042 C 0.0 **** 0.0
7423 C 101.725 87.9609 16.2008 C 0.0 **** 0.0
7424 C 101.003 89.1371 16.3639 C 0.0 **** 0.0
7425 C 99.6743 89.0199 16.8297 C 0.0 **** 0.0
7426 C 98.93 87.8559 16.605 C 0.0 **** 0.0
7427 C 99.646 86.6242 16.5999 C 0.0 **** 0.0
7428 C 101.038 86.7049 16.324 C 0.0 **** 0.0
7429 C 98.9276 85.2837 16.7647 C 0.0 **** 0.0
7430 C 97.4115 85.4649 17.0277 C 0.0 **** 0.0
7431 C 96.829 86.6297 16.2718 C 0.0 **** 0.0
7432 C 97.5573 87.8561 16.2474 C 0.0 **** 0.0
7433 C 96.981 85.4578 18.5155 C 0.0 **** 0.0
7434 C 98.1572 85.9268 19.4431 C 0.0 **** 0.0
7435 C 99.3002 84.9928 19.3548 C 0.0 **** 0.0
7436 C 99.5667 84.4711 17.9248 C 0.0 **** 0.0
7437 C 96.8523 89.018 15.7897 C 0.0 **** 0.0
7438 C 95.5603 88.9107 15.2384 C 0.0 **** 0.0
7439 C 95.0199 87.6531 14.951 C 0.0 **** 0.0
7440 C 95.63 86.5222 15.504 C 0.0 **** 0.0
7441 C 93.7643 87.5272 14.1365 C 0.0 **** 0.0
7442 C 92.9207 88.7394 13.892 C 0.0 **** 0.0
7443 C 93.3345 89.9336 14.4971 C 0.0 **** 0.0
7444 C 94.7124 90.1157 15.0062 C 0.0 **** 0.0
7445 C 92.3805 91.1036 14.6653 C 0.0 **** 0.0
7446 C 91.3957 91.2087 13.5401 C 0.0 **** 0.0
7447 C 90.8161 89.8566 13.2036 C 0.0 **** 0.0
7448 C 91.6607 88.6751 13.2229 C 0.0 **** 0.0
7449 N 91.2171 87.5007 12.7101 N 0.0 **** 0.0
7450 C 89.975 87.3671 12.1419 C 0.0 **** 0.0
7451 C 89.1031 88.4858 12.1528 C 0.0 **** 0.0
7452 C 89.5225 89.741 12.6706 C 0.0 **** 0.0
7453 C 88.598 90.9729 12.7895 C 0.0 **** 0.0
7454 C 87.4764 90.8742 11.8111 C 0.0 **** 0.0
7455 C 86.8085 89.4982 11.8271 C 0.0 **** 0.0
7456 C 87.784 88.3871 11.4731 C 0.0 **** 0.0
7457 C 87.1986 86.9606 11.6647 C 0.0 **** 0.0
7458 C 88.1975 85.9532 11.1985 C 0.0 **** 0.0
7459 C 89.5382 86.0992 11.6165 C 0.0 **** 0.0
7460 C 90.4495 85.0289 11.4853 C 0.0 **** 0.0
7461 C 90.0877 83.8786 10.8024 C 0.0 **** 0.0
7462 C 88.7782 83.793 10.2094 C 0.0 **** 0.0
7463 C 87.8314 84.8178 10.4093 C 0.0 **** 0.0
7464 C 100.089 96.6768 15.3857 C 0.0 **** 0.0
7465 C 100.463 97.7599 16.4149 C 0.0 **** 0.0
7466 C 102.911 96.7808 14.2764 C 0.0 **** 0.0
7467 C 99.1433 94.1277 16.5183 C 0.0 **** 0.0
7468 C 104.658 94.4332 14.6244 C 0.0 **** 0.0
7469 C 105.08 89.3415 14.9341 C 0.0 **** 0.0
7470 C 103.995 86.937 16.3594 C 0.0 **** 0.0
7471 O 101.695 85.5425 15.8405 O 0.0 **** 0.0
7472 C 99.2939 83.8453 20.3888 C 0.0 **** 0.0
7473 C 97.669 86.2226 20.9022 C 0.0 **** 0.0
7474 O 95.0978 85.2488 15.2233 O 0.0 **** 0.0
7475 O 97.4642 90.2902 15.8328 O 0.0 **** 0.0
7476 O 95.0251 91.1983 15.4489 O 0.0 **** 0.0
7477 O 93.4848 86.4623 13.6715 O 0.0 **** 0.0
7478 C 86.4852 84.8409 9.68562 C 0.0 **** 0.0
7479 C 88.4724 82.6361 9.29085 C 0.0 **** 0.0
7480 H 100.494 91.6851 17.3597 H 0.0 **** 0.0
7481 H 99.807 91.5347 15.6904 H 0.0 **** 0.0
7482 H 103.846 91.8861 14.0904 H 0.0 **** 0.0
7483 H 104.396 92.0185 15.8534 H 0.0 **** 0.0
7484 H 99.165 89.8517 17.2698 H 0.0 **** 0.0
7485 H 96.0709 86.1371 18.6338 H 0.0 **** 0.0
7486 H 96.7097 84.4039 18.8325 H 0.0 **** 0.0
7487 H 98.5258 86.8884 19.0426 H 0.0 **** 0.0
7488 H 100.198 85.5863 19.5857 H 0.0 **** 0.0
7489 H 99.1838 83.4441 17.9502 H 0.0 **** 0.0
7490 H 100.674 84.412 17.8273 H 0.0 **** 0.0
7491 H 91.8704 90.9307 15.6418 H 0.0 **** 0.0
7492 H 92.924 92.0652 14.6827 H 0.0 **** 0.0
7493 H 91.9425 91.5791 12.6568 H 0.0 **** 0.0
7494 H 90.6526 91.9559 13.8722 H 0.0 **** 0.0
7495 H 88.1175 91.0691 13.7867 H 0.0 **** 0.0
7496 H 89.0844 91.9448 12.6108 H 0.0 **** 0.0
7497 H 87.8957 91.0466 10.8113 H 0.0 **** 0.0
7498 H 86.7102 91.6554 11.9434 H 0.0 **** 0.0
7499 H 85.9657 89.4886 11.136 H 0.0 **** 0.0
7500 H 86.356 89.2678 12.8052 H 0.0 **** 0.0
7501 H 87.9694 88.511 10.3728 H 0.0 **** 0.0
7502 H 86.9149 86.6853 12.7283 H 0.0 **** 0.0
7503 H 86.2493 86.9927 11.0724 H 0.0 **** 0.0
7504 H 91.4076 85.073 11.9489 H 0.0 **** 0.0
7505 H 90.8092 83.1099 10.6042 H 0.0 **** 0.0
7506 H 98.999 96.4299 15.4647 H 0.0 **** 0.0
7507 H 100.144 97.1836 14.4014 H 0.0 **** 0.0
7508 H 101.558 97.9094 16.4749 H 0.0 **** 0.0
7509 H 100.127 97.3478 17.3819 H 0.0 **** 0.0
7510 H 99.9099 98.692 16.191 H 0.0 **** 0.0
7511 H 103.697 97.2678 14.9195 H 0.0 **** 0.0
7512 H 102.148 97.5714 14.1906 H 0.0 **** 0.0
7513 H 103.265 96.5457 13.2523 H 0.0 **** 0.0
7514 H 98.9635 93.1401 17.0227 H 0.0 **** 0.0
7515 H 98.4302 94.293 15.6863 H 0.0 **** 0.0
7516 H 99.0695 94.9076 17.2995 H 0.0 **** 0.0
7517 H 104.83 94.3024 13.5771 H 0.0 **** 0.0
7518 H 105.312 93.7261 15.1579 H 0.0 **** 0.0
7519 H 105.067 95.4318 14.8761 H 0.0 **** 0.0
7520 H 105.561 88.3687 14.9787 H 0.0 **** 0.0
7521 H 105.696 90.0713 15.4595 H 0.0 **** 0.0
7522 H 104.98 89.6465 13.8994 H 0.0 **** 0.0
7523 H 103.525 86.3277 17.1845 H 0.0 **** 0.0
7524 H 104.907 87.3099 16.8414 H 0.0 **** 0.0
7525 H 104.321 86.2897 15.5452 H 0.0 **** 0.0
7526 H 101.102 84.7635 15.6037 H 0.0 **** 0.0
7527 H 99.3153 84.1576 21.4373 H 0.0 **** 0.0
7528 H 100.157 83.1268 20.2062 H 0.0 **** 0.0
7529 H 98.3898 83.2224 20.2086 H 0.0 **** 0.0
7530 H 96.9371 87.0886 20.8056 H 0.0 **** 0.0
7531 H 98.5225 86.5213 21.5755 H 0.0 **** 0.0
7532 H 97.0975 85.3464 21.3586 H 0.0 **** 0.0
7533 H 95.4203 84.4837 15.8222 H 0.0 **** 0.0
7534 H 97.1537 90.8714 16.6185 H 0.0 **** 0.0
7535 H 85.6663 85.1192 10.397 H 0.0 **** 0.0
7536 H 86.2502 83.7857 9.32765 H 0.0 **** 0.0
7537 H 86.5337 85.504 8.84359 H 0.0 **** 0.0
7538 H 87.6857 82.013 9.75847 H 0.0 **** 0.0
7539 H 89.3503 81.9562 9.10113 H 0.0 **** 0.0
7540 H 88.0887 83.0201 8.30835 H 0.0 **** 0.0
7541 C 85.1268 92.3881 22.4377 C 0.0 **** 0.0
7542 C 85.8031 92.2428 23.6421 C 0.0 **** 0.0
7543 C 86.2209 93.4104 24.3165 C 0.0 **** 0.0
7544 C 86.1713 94.6706 23.696 C 0.0 **** 0.0
7545 C 85.6537 94.7421 22.3708 C 0.0 **** 0.0
7546 C 84.9354 93.6675 21.854 C 0.0 **** 0.0
7547 C 86.438 95.9293 24.5669 C 0.0 **** 0.0
7548 C 86.0018 95.7361 26.0586 C 0.0 **** 0.0
7549 C 86.0771 94.4481 26.6142 C 0.0 **** 0.0
7550 C 86.6884 93.3503 25.7473 C 0.0 **** 0.0
7551 C 85.7026 94.1863 27.9454 C 0.0 **** 0.0
7552 C 85.0662 95.2384 28.6492 C 0.0 **** 0.0
7553 C 85.1741 96.5752 28.208 C 0.0 **** 0.0
7554 C 85.6667 96.8273 26.9212 C 0.0 **** 0.0
7555 C 85.6792 98.1662 26.4224 C 0.0 **** 0.0
7556 C 84.9588 99.2004 27.0492 C 0.0 **** 0.0
7557 C 84.4989 98.9865 28.3598 C 0.0 **** 0.0
7558 C 84.705 97.6906 28.9906 C 0.0 **** 0.0
7559 C 83.7554 100.081 29.0666 C 0.0 **** 0.0
7560 C 84.4421 101.441 28.7373 C 0.0 **** 0.0
7561 C 84.6317 101.646 27.2313 C 0.0 **** 0.0
7562 C 84.7812 100.483 26.4295 C 0.0 **** 0.0
7563 C 83.4728 102.566 29.3151 C 0.0 **** 0.0
7564 C 82.4442 102.124 30.3358 C 0.0 **** 0.0
7565 C 81.6095 100.987 29.8996 C 0.0 **** 0.0
7566 C 82.2606 100.035 28.8826 C 0.0 **** 0.0
7567 C 84.7852 100.64 25.024 C 0.0 **** 0.0
7568 C 84.9812 101.931 24.4682 C 0.0 **** 0.0
7569 C 85.1645 103.061 25.3302 C 0.0 **** 0.0
7570 C 84.9391 102.918 26.6913 C 0.0 **** 0.0
7571 C 85.6134 104.343 24.7195 C 0.0 **** 0.0
7572 C 85.0923 104.676 23.3288 C 0.0 **** 0.0
7573 C 84.6278 103.644 22.5356 C 0.0 **** 0.0
7574 C 84.8674 102.237 22.9962 C 0.0 **** 0.0
7575 C 84.2122 103.894 21.1324 C 0.0 **** 0.0
7576 C 83.5851 105.309 20.9716 C 0.0 **** 0.0
7577 C 84.4085 106.358 21.6422 C 0.0 **** 0.0
7578 C 85.0521 106.011 22.8423 C 0.0 **** 0.0
7579 N 85.748 106.946 23.5213 N 0.0 **** 0.0
7580 C 85.855 108.248 23.1121 C 0.0 **** 0.0
7581 C 85.1382 108.7 21.997 C 0.0 **** 0.0
7582 C 84.3496 107.754 21.2737 C 0.0 **** 0.0
7583 C 83.6344 108.225 19.996 C 0.0 **** 0.0
7584 C 83.3368 109.717 19.9495 C 0.0 **** 0.0
7585 C 84.5783 110.493 20.3144 C 0.0 **** 0.0
7586 C 85.0579 110.186 21.7272 C 0.0 **** 0.0
7587 C 86.3081 111.01 22.1567 C 0.0 **** 0.0
7588 C 86.9441 110.448 23.4123 C 0.0 **** 0.0
7589 C 86.6519 109.124 23.8602 C 0.0 **** 0.0
7590 C 87.3829 108.61 24.9847 C 0.0 **** 0.0
7591 C 88.4121 109.363 25.5771 C 0.0 **** 0.0
7592 C 88.6756 110.675 25.1657 C 0.0 **** 0.0
7593 C 87.999 111.22 24.0317 C 0.0 **** 0.0
7594 C 83.8332 93.9378 20.7829 C 0.0 **** 0.0
7595 C 84.2871 93.796 19.3678 C 0.0 **** 0.0
7596 C 84.5738 91.1673 21.686 C 0.0 **** 0.0
7597 C 85.7964 96.0266 21.5818 C 0.0 **** 0.0
7598 C 85.9793 90.921 24.3169 C 0.0 **** 0.0
7599 C 86.002 92.8388 28.6111 C 0.0 **** 0.0
7600 C 84.1921 94.8009 29.7857 C 0.0 **** 0.0
7601 O 84.3302 97.5171 30.3448 O 0.0 **** 0.0
7602 C 80.146 101.309 29.4494 C 0.0 **** 0.0
7603 C 81.6657 103.366 30.7811 C 0.0 **** 0.0
7604 O 84.9671 104.029 27.5085 O 0.0 **** 0.0
7605 O 84.3698 99.6152 24.1735 O 0.0 **** 0.0
7606 O 84.891 101.325 22.1698 O 0.0 **** 0.0
7607 O 86.4075 105.042 25.3633 O 0.0 **** 0.0
7608 C 88.2596 112.619 23.5506 C 0.0 **** 0.0
7609 C 89.9043 111.348 25.7606 C 0.0 **** 0.0
7610 H 87.5183 96.0894 24.5384 H 0.0 **** 0.0
7611 H 85.9194 96.8184 24.1301 H 0.0 **** 0.0
7612 H 86.624 92.3644 26.2234 H 0.0 **** 0.0
7613 H 87.7844 93.5443 25.7907 H 0.0 **** 0.0
7614 H 86.1755 98.3882 25.4661 H 0.0 **** 0.0
7615 H 84.0214 103.436 29.7068 H 0.0 **** 0.0
7616 H 82.8471 102.98 28.4666 H 0.0 **** 0.0
7617 H 83.0012 101.845 31.231 H 0.0 **** 0.0
7618 H 81.4772 100.396 30.8264 H 0.0 **** 0.0
7619 H 81.9707 100.365 27.8669 H 0.0 **** 0.0
7620 H 81.9076 98.9966 28.977 H 0.0 **** 0.0
7621 H 85.1788 103.836 20.5652 H 0.0 **** 0.0
7622 H 83.6122 103.019 20.6817 H 0.0 **** 0.0
7623 H 82.6011 105.33 21.5307 H 0.0 **** 0.0
7624 H 83.542 105.472 19.8693 H 0.0 **** 0.0
7625 H 84.3148 107.963 19.1498 H 0.0 **** 0.0
7626 H 82.6486 107.765 19.8642 H 0.0 **** 0.0
7627 H 82.5763 109.818 20.7524 H 0.0 **** 0.0
7628 H 83.0539 109.983 18.9157 H 0.0 **** 0.0
7629 H 84.3524 111.595 20.2794 H 0.0 **** 0.0
7630 H 85.3955 110.288 19.6039 H 0.0 **** 0.0
7631 H 84.2486 110.593 22.3978 H 0.0 **** 0.0
7632 H 87.0737 111.064 21.3152 H 0.0 **** 0.0
7633 H 85.9575 112.073 22.2535 H 0.0 **** 0.0
7634 H 87.2392 107.596 25.3111 H 0.0 **** 0.0
7635 H 88.9926 108.84 26.3253 H 0.0 **** 0.0
7636 H 83.4582 94.9731 20.9187 H 0.0 **** 0.0
7637 H 82.9538 93.2386 20.8472 H 0.0 **** 0.0
7638 H 84.7089 94.7303 18.9761 H 0.0 **** 0.0
7639 H 83.3806 93.5871 18.7495 H 0.0 **** 0.0
7640 H 85.0593 93.0177 19.2814 H 0.0 **** 0.0
7641 H 85.4043 90.491 21.4787 H 0.0 **** 0.0
7642 H 84.1676 91.4181 20.6833 H 0.0 **** 0.0
7643 H 83.7259 90.6936 22.2693 H 0.0 **** 0.0
7644 H 85.0185 96.7614 21.891 H 0.0 **** 0.0
7645 H 86.8564 96.3869 21.6513 H 0.0 **** 0.0
7646 H 85.7141 95.896 20.4705 H 0.0 **** 0.0
7647 H 85.0769 90.8031 24.9662 H 0.0 **** 0.0
7648 H 86.9585 90.7956 24.9074 H 0.0 **** 0.0
7649 H 86.0427 90.1205 23.5374 H 0.0 **** 0.0
7650 H 85.4245 92.0201 28.1431 H 0.0 **** 0.0
7651 H 85.8505 92.7735 29.722 H 0.0 **** 0.0
7652 H 87.0692 92.5031 28.4204 H 0.0 **** 0.0
7653 H 83.3119 95.4864 29.8553 H 0.0 **** 0.0
7654 H 84.788 94.7632 30.687 H 0.0 **** 0.0
7655 H 83.7496 93.809 29.5615 H 0.0 **** 0.0
7656 H 83.9123 98.3313 30.7945 H 0.0 **** 0.0
7657 H 79.5667 101.742 30.3103 H 0.0 **** 0.0
7658 H 79.5063 100.407 29.2096 H 0.0 **** 0.0
7659 H 80.2438 102.04 28.6407 H 0.0 **** 0.0
7660 H 82.3336 104.152 31.095 H 0.0 **** 0.0
7661 H 80.9336 103.106 31.5761 H 0.0 **** 0.0
7662 H 81.1082 103.863 29.9433 H 0.0 **** 0.0
7663 H 84.7872 104.986 27.2074 H 0.0 **** 0.0
7664 H 84.0883 98.7556 24.5956 H 0.0 **** 0.0
7665 H 87.3835 113.21 23.8539 H 0.0 **** 0.0
7666 H 88.3806 112.671 22.4312 H 0.0 **** 0.0
7667 H 89.1319 113.1 24.0439 H 0.0 **** 0.0
7668 H 90.4705 110.629 26.3314 H 0.0 **** 0.0
7669 H 89.553 112.159 26.4154 H 0.0 **** 0.0
7670 H 90.6453 111.685 24.9743 H 0.0 **** 0.0
7671 C 80.7689 11.1865 80.6096 C 0.0 **** 0.0
7672 C 81.4713 12.2544 81.2086 C 0.0 **** 0.0
7673 C 82.8651 12.336 81.1783 C 0.0 **** 0.0
7674 C 83.6017 11.2975 80.602 C 0.0 **** 0.0
7675 C 82.9287 10.1481 80.0463 C 0.0 **** 0.0
7676 C 81.5129 10.188 79.922 C 0.0 **** 0.0
7677 C 85.0814 11.3711 80.467 C 0.0 **** 0.0
7678 C 85.7807 12.5457 81.1516 C 0.0 **** 0.0
7679 C 85.0355 13.6496 81.6544 C 0.0 **** 0.0
7680 C 83.5536 13.6248 81.6245 C 0.0 **** 0.0
7681 C 85.7018 14.7271 82.3034 C 0.0 **** 0.0
7682 C 87.0466 14.6422 82.623 C 0.0 **** 0.0
7683 C 87.8219 13.4799 82.2212 C 0.0 **** 0.0
7684 C 87.1825 12.5176 81.4096 C 0.0 **** 0.0
7685 C 87.9832 11.4765 80.871 C 0.0 **** 0.0
7686 C 89.3161 11.2696 81.2171 C 0.0 **** 0.0
7687 C 89.8312 12.079 82.2625 C 0.0 **** 0.0
7688 C 89.1551 13.2267 82.6331 C 0.0 **** 0.0
7689 C 91.0942 11.6173 83.0379 C 0.0 **** 0.0
7690 C 91.4148 10.1471 82.7345 C 0.0 **** 0.0
7691 C 91.1474 9.72913 81.3248 C 0.0 **** 0.0
7692 C 90.1455 10.3352 80.5799 C 0.0 **** 0.0
7693 C 90.7863 9.217 83.7683 C 0.0 **** 0.0
7694 C 91.325 9.51544 85.1951 C 0.0 **** 0.0
7695 C 91.8656 10.8893 85.3509 C 0.0 **** 0.0
7696 C 90.9648 11.8264 84.5687 C 0.0 **** 0.0
7697 C 90.1321 10.065 79.1974 C 0.0 **** 0.0
7698 C 91.2118 9.42896 78.5744 C 0.0 **** 0.0
7699 C 92.104 8.71631 79.3742 C 0.0 **** 0.0
7700 C 92.1008 8.9167 80.7783 C 0.0 **** 0.0
7701 C 93.0107 7.76446 78.7058 C 0.0 **** 0.0
7702 C 92.8275 7.47477 77.2439 C 0.0 **** 0.0
7703 C 92.1987 8.39018 76.4656 C 0.0 **** 0.0
7704 C 91.4203 9.48004 77.1326 C 0.0 **** 0.0
7705 C 92.4501 8.45394 75.0064 C 0.0 **** 0.0
7706 C 92.4419 7.09492 74.3322 C 0.0 **** 0.0
7707 C 93.0976 6.0475 75.222 C 0.0 **** 0.0
7708 C 93.3352 6.29719 76.6192 C 0.0 **** 0.0
7709 N 93.9978 5.37362 77.3358 N 0.0 **** 0.0
7710 C 94.4372 4.20079 76.8256 C 0.0 **** 0.0
7711 C 94.1285 3.89278 75.4858 C 0.0 **** 0.0
7712 C 93.428 4.79098 74.691 C 0.0 **** 0.0
7713 C 93.1161 4.4402 73.1923 C 0.0 **** 0.0
7714 C 93.7196 3.10176 72.6531 C 0.0 **** 0.0
7715 C 93.8308 2.08272 73.7512 C 0.0 **** 0.0
7716 C 94.7454 2.63742 74.8741 C 0.0 **** 0.0
7717 C 95.0176 1.56026 75.9133 C 0.0 **** 0.0
7718 C 95.7801 2.12396 77.1527 C 0.0 **** 0.0
7719 C 95.3384 3.39705 77.6038 C 0.0 **** 0.0
7720 C 95.8953 3.98498 78.7522 C 0.0 **** 0.0
7721 C 96.8726 3.31643 79.4459 C 0.0 **** 0.0
7722 C 97.4353 2.10468 78.9682 C 0.0 **** 0.0
7723 C 96.7817 1.44618 77.8941 C 0.0 **** 0.0
7724 C 80.8207 9.23238 78.9703 C 0.0 **** 0.0
7725 C 80.0769 8.12468 79.7017 C 0.0 **** 0.0
7726 C 79.234 11.1386 80.7358 C 0.0 **** 0.0
7727 C 83.7188 8.93381 79.5038 C 0.0 **** 0.0
7728 C 80.6506 13.3488 81.8979 C 0.0 **** 0.0
7729 C 84.9342 16.0358 82.5294 C 0.0 **** 0.0
7730 C 87.7519 15.7786 83.3556 C 0.0 **** 0.0
7731 O 89.8659 14.2027 83.318 O 0.0 **** 0.0
7732 C 93.375 11.059 85.0329 C 0.0 **** 0.0
7733 C 92.2504 8.38069 85.6834 C 0.0 **** 0.0
7734 O 93.0982 8.41234 81.6337 O 0.0 **** 0.0
7735 O 89.0579 10.5007 78.4178 O 0.0 **** 0.0
7736 O 91.0281 10.4157 76.47 O 0.0 **** 0.0
7737 O 93.8396 7.16061 79.3634 O 0.0 **** 0.0
7738 C 97.1119 -0.000621807 77.5087 C 0.0 **** 0.0
7739 C 98.6835 1.58588 79.6609 C 0.0 **** 0.0
7740 H 85.4023 10.4816 81.0775 H 0.0 **** 0.0
7741 H 85.324 11.3079 79.3891 H 0.0 **** 0.0
7742 H 83.2598 14.3856 80.9264 H 0.0 **** 0.0
7743 H 83.1823 13.8696 82.6824 H 0.0 **** 0.0
7744 H 87.528 10.7705 80.2617 H 0.0 **** 0.0
7745 H 89.6821 9.22356 83.707 H 0.0 **** 0.0
7746 H 90.9975 8.19045 83.5031 H 0.0 **** 0.0
7747 H 90.4214 9.52208 85.8876 H 0.0 **** 0.0
7748 H 91.8452 11.0942 86.477 H 0.0 **** 0.0
7749 H 91.2917 12.879 84.8005 H 0.0 **** 0.0
7750 H 89.8992 11.755 84.9034 H 0.0 **** 0.0
7751 H 91.7295 9.09784 74.4702 H 0.0 **** 0.0
7752 H 93.4322 8.91352 74.9139 H 0.0 **** 0.0
7753 H 93.0292 7.15546 73.363 H 0.0 **** 0.0
7754 H 91.4079 6.79309 74.1146 H 0.0 **** 0.0
7755 H 92.0341 4.37719 73.0216 H 0.0 **** 0.0
7756 H 93.4914 5.21171 72.5189 H 0.0 **** 0.0
7757 H 94.7383 3.35548 72.25 H 0.0 **** 0.0
7758 H 93.0727 2.70535 71.8404 H 0.0 **** 0.0
7759 H 94.2867 1.20277 73.3333 H 0.0 **** 0.0
7760 H 92.8202 1.83711 74.1841 H 0.0 **** 0.0
7761 H 95.7466 2.9274 74.4969 H 0.0 **** 0.0
7762 H 93.9826 1.17349 76.2296 H 0.0 **** 0.0
7763 H 95.611 0.763219 75.4454 H 0.0 **** 0.0
7764 H 95.6436 4.95264 79.1922 H 0.0 **** 0.0
7765 H 97.316 3.79638 80.3191 H 0.0 **** 0.0
7766 H 81.483 8.79968 78.2102 H 0.0 **** 0.0
7767 H 80.1768 9.69166 78.2792 H 0.0 **** 0.0
7768 H 79.7759 8.36236 80.7048 H 0.0 **** 0.0
7769 H 80.686 7.22912 79.8604 H 0.0 **** 0.0
7770 H 79.1757 7.81225 79.1382 H 0.0 **** 0.0
7771 H 78.868 11.0995 81.7751 H 0.0 **** 0.0
7772 H 78.7478 10.2642 80.2827 H 0.0 **** 0.0
7773 H 78.8099 12.0166 80.2303 H 0.0 **** 0.0
7774 H 83.1606 8.06695 79.9299 H 0.0 **** 0.0
7775 H 84.8256 8.87408 79.8005 H 0.0 **** 0.0
7776 H 83.6521 8.88276 78.3652 H 0.0 **** 0.0
7777 H 81.1301 14.1917 82.3678 H 0.0 **** 0.0
7778 H 80.0877 12.9158 82.7271 H 0.0 **** 0.0
7779 H 79.9732 13.8189 81.191 H 0.0 **** 0.0
7780 H 85.4845 16.8826 82.0313 H 0.0 **** 0.0
7781 H 84.8832 16.2405 83.6249 H 0.0 **** 0.0
7782 H 83.9416 16.1301 82.0911 H 0.0 **** 0.0
7783 H 88.0951 15.3923 84.3737 H 0.0 **** 0.0
7784 H 87.107 16.6353 83.6288 H 0.0 **** 0.0
7785 H 88.5913 16.1762 82.7157 H 0.0 **** 0.0
7786 H 90.7802 14.2974 82.9766 H 0.0 **** 0.0
7787 H 94.0578 10.4264 85.6886 H 0.0 **** 0.0
7788 H 93.7079 12.1002 85.1277 H 0.0 **** 0.0
7789 H 93.6071 10.797 83.9936 H 0.0 **** 0.0
7790 H 91.707 7.41562 85.7248 H 0.0 **** 0.0
7791 H 92.6428 8.59867 86.6882 H 0.0 **** 0.0
7792 H 93.1576 8.35519 85.0223 H 0.0 **** 0.0
7793 H 93.2648 7.40764 81.5825 H 0.0 **** 0.0
7794 H 88.9465 10.0361 77.5423 H 0.0 **** 0.0
7795 H 96.2139 -0.641878 77.5043 H 0.0 **** 0.0
7796 H 97.7357 -0.444207 78.2588 H 0.0 **** 0.0
7797 H 97.6543 -0.0918366 76.5228 H 0.0 **** 0.0
7798 H 98.5228 0.613051 80.1068 H 0.0 **** 0.0
7799 H 99.0639 2.32242 80.3815 H 0.0 **** 0.0
7800 H 99.468 1.40172 78.8411 H 0.0 **** 0.0
7801 C 4.2844 101.663 99.1163 C 0.0 **** 0.0
7802 C 4.42311 102.933 98.4627 C 0.0 **** 0.0
7803 C 5.38511 103.112 97.4274 C 0.0 **** 0.0
7804 C 6.28289 102.081 97.1083 C 0.0 **** 0.0
7805 C 6.12351 100.824 97.717 C 0.0 **** 0.0
7806 C 5.09828 100.569 98.6723 C 0.0 **** 0.0
7807 C 7.44463 102.394 96.1847 C 0.0 **** 0.0
7808 C 7.43963 103.643 95.3784 C 0.0 **** 0.0
7809 C 6.39054 104.552 95.4807 C 0.0 **** 0.0
7810 C 5.37991 104.388 96.6001 C 0.0 **** 0.0
7811 C 6.37294 105.697 94.6573 C 0.0 **** 0.0
7812 C 7.41342 105.931 93.7369 C 0.0 **** 0.0
7813 C 8.42952 104.977 93.5762 C 0.0 **** 0.0
7814 C 8.50861 103.86 94.4362 C 0.0 **** 0.0
7815 C 9.50455 102.939 94.2368 C 0.0 **** 0.0
7816 C 10.5143 103.046 93.2692 C 0.0 **** 0.0
7817 C 10.512 104.207 92.4338 C 0.0 **** 0.0
7818 C 9.37008 105.044 92.4892 C 0.0 **** 0.0
7819 C 11.7132 104.586 91.5806 C 0.0 **** 0.0
7820 C 12.945 103.735 91.9063 C 0.0 **** 0.0
7821 C 12.6666 102.3 92.3161 C 0.0 **** 0.0
7822 C 11.4649 101.998 93.0325 C 0.0 **** 0.0
7823 C 13.9494 104.467 92.8664 C 0.0 **** 0.0
7824 C 13.241 105.489 93.7435 C 0.0 **** 0.0
7825 C 12.684 106.585 92.9484 C 0.0 **** 0.0
7826 C 12.1052 106.088 91.6052 C 0.0 **** 0.0
7827 C 11.1883 100.609 93.301 C 0.0 **** 0.0
7828 C 12.1253 99.5964 92.9382 C 0.0 **** 0.0
7829 C 13.4254 99.9392 92.4894 C 0.0 **** 0.0
7830 C 13.6498 101.275 92.086 C 0.0 **** 0.0
7831 C 14.5474 98.9607 92.459 C 0.0 **** 0.0
7832 C 14.2262 97.4875 92.6632 C 0.0 **** 0.0
7833 C 12.9061 97.0923 92.988 C 0.0 **** 0.0
7834 C 11.8436 98.1023 93.1112 C 0.0 **** 0.0
7835 C 12.5014 95.6522 93.247 C 0.0 **** 0.0
7836 C 13.5105 94.631 92.8202 C 0.0 **** 0.0
7837 C 14.9152 95.1256 92.6253 C 0.0 **** 0.0
7838 C 15.2371 96.4885 92.5445 C 0.0 **** 0.0
7839 N 16.5004 96.8634 92.2517 N 0.0 **** 0.0
7840 C 17.541 95.9999 92.0366 C 0.0 **** 0.0
7841 C 17.2271 94.6495 91.9544 C 0.0 **** 0.0
7842 C 15.9048 94.1774 92.2211 C 0.0 **** 0.0
7843 C 15.6092 92.7014 92.0995 C 0.0 **** 0.0
7844 C 16.6113 91.9042 91.2438 C 0.0 **** 0.0
7845 C 18.0179 92.2765 91.5636 C 0.0 **** 0.0
7846 C 18.2661 93.7445 91.3294 C 0.0 **** 0.0
7847 C 19.7028 94.1076 91.7641 C 0.0 **** 0.0
7848 C 19.945 95.6161 91.7592 C 0.0 **** 0.0
7849 C 18.8152 96.4765 91.8693 C 0.0 **** 0.0
7850 C 18.993 97.8511 91.8365 C 0.0 **** 0.0
7851 C 20.2344 98.3941 91.5945 C 0.0 **** 0.0
7852 C 21.3783 97.5998 91.5572 C 0.0 **** 0.0
7853 C 21.2293 96.1633 91.5964 C 0.0 **** 0.0
7854 C 4.88045 99.2054 99.2637 C 0.0 **** 0.0
7855 C 5.77343 99.1261 100.532 C 0.0 **** 0.0
7856 C 3.18879 101.532 100.214 C 0.0 **** 0.0
7857 C 7.04706 99.7139 97.3258 C 0.0 **** 0.0
7858 C 3.50042 103.995 98.9028 C 0.0 **** 0.0
7859 C 5.17901 106.62 94.7057 C 0.0 **** 0.0
7860 C 7.61292 107.392 93.2407 C 0.0 **** 0.0
7861 O 9.00416 105.807 91.3282 O 0.0 **** 0.0
7862 C 13.7124 107.702 92.7078 C 0.0 **** 0.0
7863 C 14.1209 105.869 94.9207 C 0.0 **** 0.0
7864 O 14.7945 101.706 91.4095 O 0.0 **** 0.0
7865 O 10.0167 100.201 93.9232 O 0.0 **** 0.0
7866 O 10.7161 97.7212 93.3666 O 0.0 **** 0.0
7867 O 15.7114 99.3686 92.3978 O 0.0 **** 0.0
7868 C 22.43 95.2156 91.4338 C 0.0 **** 0.0
7869 C 22.7178 98.292 91.5497 C 0.0 **** 0.0
7870 H 8.29642 102.564 96.85 H 0.0 **** 0.0
7871 H 7.44797 101.543 95.4395 H 0.0 **** 0.0
7872 H 4.38798 104.522 96.2136 H 0.0 **** 0.0
7873 H 5.54401 105.185 97.2751 H 0.0 **** 0.0
7874 H 9.62411 102.133 94.9559 H 0.0 **** 0.0
7875 H 14.4864 103.682 93.4163 H 0.0 **** 0.0
7876 H 14.6906 104.934 92.1958 H 0.0 **** 0.0
7877 H 12.3639 104.955 94.2254 H 0.0 **** 0.0
7878 H 11.8655 107.094 93.5058 H 0.0 **** 0.0
7879 H 12.8344 106.171 90.788 H 0.0 **** 0.0
7880 H 11.2832 106.731 91.2825 H 0.0 **** 0.0
7881 H 12.2354 95.5189 94.3584 H 0.0 **** 0.0
7882 H 11.555 95.4534 92.7509 H 0.0 **** 0.0
7883 H 13.1366 94.1495 91.8659 H 0.0 **** 0.0
7884 H 13.5147 93.8425 93.5884 H 0.0 **** 0.0
7885 H 15.6634 92.2827 93.1653 H 0.0 **** 0.0
7886 H 14.6091 92.5276 91.6926 H 0.0 **** 0.0
7887 H 16.3932 92.111 90.1791 H 0.0 **** 0.0
7888 H 16.4429 90.7963 91.4749 H 0.0 **** 0.0
7889 H 18.665 91.6428 90.9544 H 0.0 **** 0.0
7890 H 18.2176 91.9341 92.641 H 0.0 **** 0.0
7891 H 18.259 94.0035 90.2289 H 0.0 **** 0.0
7892 H 19.9555 93.814 92.8409 H 0.0 **** 0.0
7893 H 20.4453 93.6047 91.0806 H 0.0 **** 0.0
7894 H 18.1458 98.5181 91.9125 H 0.0 **** 0.0
7895 H 20.3286 99.432 91.4466 H 0.0 **** 0.0
7896 H 5.04262 98.4361 98.5339 H 0.0 **** 0.0
7897 H 3.78768 99.0111 99.5755 H 0.0 **** 0.0
7898 H 6.78796 99.4732 100.292 H 0.0 **** 0.0
7899 H 5.76266 98.0655 100.82 H 0.0 **** 0.0
7900 H 5.32646 99.6903 101.377 H 0.0 **** 0.0
7901 H 3.46013 102.137 101.08 H 0.0 **** 0.0
7902 H 2.99134 100.487 100.561 H 0.0 **** 0.0
7903 H 2.17995 101.874 99.7996 H 0.0 **** 0.0
7904 H 6.79329 99.2826 96.3028 H 0.0 **** 0.0
7905 H 7.14802 98.8435 98.0311 H 0.0 **** 0.0
7906 H 8.08409 100.063 97.3556 H 0.0 **** 0.0
7907 H 3.6927 104.942 98.4403 H 0.0 **** 0.0
7908 H 3.68905 104.23 99.9778 H 0.0 **** 0.0
7909 H 2.45743 103.7 98.6554 H 0.0 **** 0.0
7910 H 5.23339 107.454 93.9197 H 0.0 **** 0.0
7911 H 5.2158 107.181 95.6866 H 0.0 **** 0.0
7912 H 4.17288 106.107 94.6223 H 0.0 **** 0.0
7913 H 8.65763 107.551 92.981 H 0.0 **** 0.0
7914 H 7.23555 108.183 93.9463 H 0.0 **** 0.0
7915 H 7.0835 107.472 92.2767 H 0.0 **** 0.0
7916 H 9.41897 105.435 90.5023 H 0.0 **** 0.0
7917 H 13.9621 108.214 93.6699 H 0.0 **** 0.0
7918 H 13.2919 108.539 92.1118 H 0.0 **** 0.0
7919 H 14.6044 107.31 92.1426 H 0.0 **** 0.0
7920 H 14.1157 105.081 95.728 H 0.0 **** 0.0
7921 H 13.6914 106.788 95.3568 H 0.0 **** 0.0
7922 H 15.1448 106.065 94.5793 H 0.0 **** 0.0
7923 H 15.2909 101.002 90.8491 H 0.0 **** 0.0
7924 H 10.2869 99.5674 94.69 H 0.0 **** 0.0
7925 H 22.4662 94.5219 92.3234 H 0.0 **** 0.0
7926 H 23.392 95.7612 91.4591 H 0.0 **** 0.0
7927 H 22.3207 94.6591 90.5107 H 0.0 **** 0.0
7928 H 23.3161 97.8799 92.3624 H 0.0 **** 0.0
7929 H 22.6526 99.4035 91.6637 H 0.0 **** 0.0
7930 H 23.2023 98.0228 90.5501 H 0.0 **** 0.0
7931 C 37.1042 64.6917 41.6514 C 0.0 **** 0.0
7932 C 37.8598 64.3051 42.8136 C 0.0 **** 0.0
7933 C 38.7956 65.2764 43.3164 C 0.0 **** 0.0
7934 C 39.0392 66.5161 42.6948 C 0.0 **** 0.0
7935 C 38.2108 66.9214 41.6227 C 0.0 **** 0.0
7936 C 37.1867 66.0062 41.166 C 0.0 **** 0.0
7937 C 40.1249 67.4155 43.217 C 0.0 **** 0.0
7938 C 40.3779 67.3534 44.7191 C 0.0 **** 0.0
7939 C 40.0617 66.2107 45.4691 C 0.0 **** 0.0
7940 C 39.4112 65.0239 44.7148 C 0.0 **** 0.0
7941 C 40.2753 66.1213 46.8482 C 0.0 **** 0.0
7942 C 40.7213 67.3032 47.5088 C 0.0 **** 0.0
7943 C 41.2291 68.4276 46.752 C 0.0 **** 0.0
7944 C 41.0361 68.4179 45.3426 C 0.0 **** 0.0
7945 C 41.6592 69.42 44.5413 C 0.0 **** 0.0
7946 C 42.38 70.4445 45.0569 C 0.0 **** 0.0
7947 C 42.4761 70.5292 46.4731 C 0.0 **** 0.0
7948 C 41.9889 69.5107 47.328 C 0.0 **** 0.0
7949 C 43.2685 71.7081 47.0184 C 0.0 **** 0.0
7950 C 42.8355 73.0299 46.2362 C 0.0 **** 0.0
7951 C 42.8463 72.8055 44.7088 C 0.0 **** 0.0
7952 C 42.8343 71.4975 44.2218 C 0.0 **** 0.0
7953 C 43.8381 74.1078 46.665 C 0.0 **** 0.0
7954 C 45.2992 73.6483 46.4439 C 0.0 **** 0.0
7955 C 45.6593 72.4913 47.2506 C 0.0 **** 0.0
7956 C 44.7395 71.2787 46.9792 C 0.0 **** 0.0
7957 C 43.2638 71.345 42.8452 C 0.0 **** 0.0
7958 C 43.4493 72.4761 42.0304 C 0.0 **** 0.0
7959 C 43.0978 73.7625 42.4609 C 0.0 **** 0.0
7960 C 42.7002 73.9095 43.8072 C 0.0 **** 0.0
7961 C 43.2584 74.895 41.4852 C 0.0 **** 0.0
7962 C 43.3863 74.6235 40.021 C 0.0 **** 0.0
7963 C 43.5976 73.2892 39.6367 C 0.0 **** 0.0
7964 C 43.9984 72.3407 40.6921 C 0.0 **** 0.0
7965 C 43.771 72.949 38.1775 C 0.0 **** 0.0
7966 C 42.7192 73.6675 37.3286 C 0.0 **** 0.0
7967 C 42.7209 75.1547 37.7187 C 0.0 **** 0.0
7968 C 43.0926 75.5939 39.0169 C 0.0 **** 0.0
7969 N 43.1032 76.9281 39.3418 N 0.0 **** 0.0
7970 C 42.6254 77.8433 38.441 C 0.0 **** 0.0
7971 C 42.1765 77.4135 37.1491 C 0.0 **** 0.0
7972 C 42.2323 76.0706 36.7759 C 0.0 **** 0.0
7973 C 41.5926 75.6026 35.4817 C 0.0 **** 0.0
7974 C 40.6458 76.61 34.8155 C 0.0 **** 0.0
7975 C 41.3208 78.0033 34.838 C 0.0 **** 0.0
7976 C 41.4751 78.4457 36.2969 C 0.0 **** 0.0
7977 C 42.1703 79.7857 36.3096 C 0.0 **** 0.0
7978 C 42.3937 80.2267 37.7519 C 0.0 **** 0.0
7979 C 42.6078 79.2665 38.7547 C 0.0 **** 0.0
7980 C 42.8551 79.721 40.0634 C 0.0 **** 0.0
7981 C 42.7048 81.0624 40.3942 C 0.0 **** 0.0
7982 C 42.4357 81.9993 39.401 C 0.0 **** 0.0
7983 C 42.4406 81.6244 38.0524 C 0.0 **** 0.0
7984 C 36.1293 66.504 40.2415 C 0.0 **** 0.0
7985 C 36.5571 66.584 38.7669 C 0.0 **** 0.0
7986 C 36.3435 63.7109 40.8291 C 0.0 **** 0.0
7987 C 38.345 68.3379 41.0433 C 0.0 **** 0.0
7988 C 37.7253 62.9207 43.4296 C 0.0 **** 0.0
7989 C 39.8697 64.8481 47.6174 C 0.0 **** 0.0
7990 C 40.6735 67.3297 49.0872 C 0.0 **** 0.0
7991 O 42.2557 69.5172 48.7057 O 0.0 **** 0.0
7992 C 45.7426 72.6868 48.8026 C 0.0 **** 0.0
7993 C 46.2237 74.8472 46.6809 C 0.0 **** 0.0
7994 O 42.1604 75.0904 44.3299 O 0.0 **** 0.0
7995 O 43.6156 70.0368 42.3834 O 0.0 **** 0.0
7996 O 44.9154 71.559 40.4873 O 0.0 **** 0.0
7997 O 43.316 76.0688 41.9246 O 0.0 **** 0.0
7998 C 42.5601 82.7162 36.9856 C 0.0 **** 0.0
7999 C 42.0433 83.3963 39.8367 C 0.0 **** 0.0
8000 H 41.0996 67.268 42.6811 H 0.0 **** 0.0
8001 H 39.8516 68.4511 42.974 H 0.0 **** 0.0
8002 H 38.5576 64.7047 45.3484 H 0.0 **** 0.0
8003 H 40.0735 64.1758 44.6295 H 0.0 **** 0.0
8004 H 41.6174 69.3601 43.4954 H 0.0 **** 0.0
8005 H 43.6599 75.0335 46.1356 H 0.0 **** 0.0
8006 H 43.6237 74.3779 47.734 H 0.0 **** 0.0
8007 H 45.4531 73.385 45.3685 H 0.0 **** 0.0
8008 H 46.7024 72.1978 46.9537 H 0.0 **** 0.0
8009 H 44.8913 70.461 47.7382 H 0.0 **** 0.0
8010 H 44.9039 70.8819 45.9893 H 0.0 **** 0.0
8011 H 44.7974 73.2745 37.813 H 0.0 **** 0.0
8012 H 43.6374 71.8713 38.0567 H 0.0 **** 0.0
8013 H 41.6662 73.2105 37.4461 H 0.0 **** 0.0
8014 H 43.0361 73.4632 36.2791 H 0.0 **** 0.0
8015 H 42.3095 75.2071 34.7671 H 0.0 **** 0.0
8016 H 40.8896 74.7687 35.6713 H 0.0 **** 0.0
8017 H 39.6631 76.6383 35.3236 H 0.0 **** 0.0
8018 H 40.4468 76.3443 33.7476 H 0.0 **** 0.0
8019 H 40.687 78.786 34.3058 H 0.0 **** 0.0
8020 H 42.3148 77.9946 34.3583 H 0.0 **** 0.0
8021 H 40.4851 78.6092 36.7197 H 0.0 **** 0.0
8022 H 43.1974 79.7146 35.8168 H 0.0 **** 0.0
8023 H 41.4852 80.5222 35.8088 H 0.0 **** 0.0
8024 H 43.0339 78.9764 40.8258 H 0.0 **** 0.0
8025 H 42.8548 81.3363 41.4353 H 0.0 **** 0.0
8026 H 35.81 67.5245 40.5576 H 0.0 **** 0.0
8027 H 35.2142 65.9185 40.2965 H 0.0 **** 0.0
8028 H 36.5625 65.5534 38.3081 H 0.0 **** 0.0
8029 H 37.5789 67.0027 38.6141 H 0.0 **** 0.0
8030 H 35.8102 67.1422 38.1793 H 0.0 **** 0.0
8031 H 36.601 62.7068 41.123 H 0.0 **** 0.0
8032 H 36.6213 63.7748 39.7351 H 0.0 **** 0.0
8033 H 35.2587 63.8098 40.9756 H 0.0 **** 0.0
8034 H 37.6217 68.6291 40.25 H 0.0 **** 0.0
8035 H 39.3889 68.5647 40.6846 H 0.0 **** 0.0
8036 H 38.1359 69.0802 41.8095 H 0.0 **** 0.0
8037 H 38.206 62.7671 44.3784 H 0.0 **** 0.0
8038 H 38.0877 62.0994 42.6835 H 0.0 **** 0.0
8039 H 36.6191 62.6994 43.5571 H 0.0 **** 0.0
8040 H 38.9363 64.9738 48.1122 H 0.0 **** 0.0
8041 H 40.6747 64.5872 48.3681 H 0.0 **** 0.0
8042 H 39.8162 63.9706 46.9551 H 0.0 **** 0.0
8043 H 41.6608 67.1321 49.5229 H 0.0 **** 0.0
8044 H 39.9909 66.5476 49.533 H 0.0 **** 0.0
8045 H 40.2257 68.2943 49.4256 H 0.0 **** 0.0
8046 H 42.9596 70.1977 48.9985 H 0.0 **** 0.0
8047 H 45.9901 73.7081 49.1626 H 0.0 **** 0.0
8048 H 46.5422 72.0372 49.2121 H 0.0 **** 0.0
8049 H 44.7972 72.4224 49.3206 H 0.0 **** 0.0
8050 H 46.2043 75.6089 45.8694 H 0.0 **** 0.0
8051 H 47.2522 74.4252 46.7183 H 0.0 **** 0.0
8052 H 45.9858 75.3187 47.6619 H 0.0 **** 0.0
8053 H 41.625 75.5982 43.6358 H 0.0 **** 0.0
8054 H 43.394 69.8963 41.393 H 0.0 **** 0.0
8055 H 43.5356 82.58 36.4604 H 0.0 **** 0.0
8056 H 42.5454 83.7158 37.3577 H 0.0 **** 0.0
8057 H 41.7896 82.5536 36.2698 H 0.0 **** 0.0
8058 H 42.8312 84.1026 39.5486 H 0.0 **** 0.0
8059 H 42.0358 83.5439 40.8976 H 0.0 **** 0.0
8060 H 41.0142 83.5785 39.4202 H 0.0 **** 0.0
8061 C 78.6611 45.2829 101.212 C 0.0 **** 0.0
8062 C 77.5287 46.0842 101.033 C 0.0 **** 0.0
8063 C 77.4161 47.0503 99.9805 C 0.0 **** 0.0
8064 C 78.4554 47.1226 99.0697 C 0.0 **** 0.0
8065 C 79.6021 46.2494 99.184 C 0.0 **** 0.0
8066 C 79.7683 45.4952 100.386 C 0.0 **** 0.0
8067 C 78.2914 48.0508 97.8653 C 0.0 **** 0.0
8068 C 77.2969 49.2117 97.9693 C 0.0 **** 0.0
8069 C 76.3537 49.2026 98.9966 C 0.0 **** 0.0
8070 C 76.2544 47.9961 99.8858 C 0.0 **** 0.0
8071 C 75.4923 50.3093 99.1841 C 0.0 **** 0.0
8072 C 75.7185 51.4979 98.449 C 0.0 **** 0.0
8073 C 76.6153 51.4952 97.3511 C 0.0 **** 0.0
8074 C 77.3265 50.3091 97.0747 C 0.0 **** 0.0
8075 C 78.0233 50.1812 95.8496 C 0.0 **** 0.0
8076 C 78.1846 51.2848 95.0116 C 0.0 **** 0.0
8077 C 77.8556 52.5552 95.5161 C 0.0 **** 0.0
8078 C 76.9147 52.6442 96.5546 C 0.0 **** 0.0
8079 C 78.3884 53.8309 94.8695 C 0.0 **** 0.0
8080 C 79.5184 53.5163 93.8897 C 0.0 **** 0.0
8081 C 79.2546 52.2607 93.1123 C 0.0 **** 0.0
8082 C 78.6584 51.1437 93.6778 C 0.0 **** 0.0
8083 C 80.9705 53.818 94.4109 C 0.0 **** 0.0
8084 C 81.1382 55.2765 94.9228 C 0.0 **** 0.0
8085 C 79.9078 55.9668 95.2452 C 0.0 **** 0.0
8086 C 78.8004 55.0399 95.8342 C 0.0 **** 0.0
8087 C 78.4413 49.9816 92.8843 C 0.0 **** 0.0
8088 C 79.079 49.9449 91.5813 C 0.0 **** 0.0
8089 C 79.8104 51.0824 91.1472 C 0.0 **** 0.0
8090 C 79.7745 52.2977 91.8305 C 0.0 **** 0.0
8091 C 80.8303 50.9285 90.0666 C 0.0 **** 0.0
8092 C 80.882 49.6822 89.2472 C 0.0 **** 0.0
8093 C 80.0203 48.647 89.5749 C 0.0 **** 0.0
8094 C 79.0418 48.7913 90.6911 C 0.0 **** 0.0
8095 C 79.8723 47.5697 88.557 C 0.0 **** 0.0
8096 C 81.2071 47.1544 87.8333 C 0.0 **** 0.0
8097 C 81.9644 48.3845 87.4127 C 0.0 **** 0.0
8098 C 81.738 49.6036 88.1242 C 0.0 **** 0.0
8099 N 82.4365 50.6919 87.7997 N 0.0 **** 0.0
8100 C 83.3537 50.7348 86.763 C 0.0 **** 0.0
8101 C 83.5991 49.573 86.0023 C 0.0 **** 0.0
8102 C 82.9527 48.3639 86.3819 C 0.0 **** 0.0
8103 C 83.4119 47.0403 85.6942 C 0.0 **** 0.0
8104 C 84.4745 47.1374 84.5716 C 0.0 **** 0.0
8105 C 85.3637 48.3674 84.6769 C 0.0 **** 0.0
8106 C 84.513 49.6408 84.7649 C 0.0 **** 0.0
8107 C 85.4506 50.8181 84.8034 C 0.0 **** 0.0
8108 C 84.8053 52.0654 85.3523 C 0.0 **** 0.0
8109 C 83.8579 52.0109 86.4071 C 0.0 **** 0.0
8110 C 83.43 53.1982 87.0219 C 0.0 **** 0.0
8111 C 83.8204 54.4266 86.5574 C 0.0 **** 0.0
8112 C 84.6895 54.4975 85.4305 C 0.0 **** 0.0
8113 C 85.2402 53.3251 84.8929 C 0.0 **** 0.0
8114 C 81.1599 45.0527 100.805 C 0.0 **** 0.0
8115 C 81.8893 46.3147 101.455 C 0.0 **** 0.0
8116 C 78.7675 44.3919 102.431 C 0.0 **** 0.0
8117 C 80.6317 46.2504 98.0659 C 0.0 **** 0.0
8118 C 76.3758 45.8597 101.94 C 0.0 **** 0.0
8119 C 74.285 50.1755 100.12 C 0.0 **** 0.0
8120 C 74.9801 52.7603 98.8728 C 0.0 **** 0.0
8121 O 76.1705 53.7866 96.7653 O 0.0 **** 0.0
8122 C 79.3332 56.7075 93.9636 C 0.0 **** 0.0
8123 C 82.1229 56.1469 94.0899 C 0.0 **** 0.0
8124 O 80.199 53.5002 91.2596 O 0.0 **** 0.0
8125 O 77.5776 48.9453 93.1831 O 0.0 **** 0.0
8126 O 78.2043 47.9676 90.8804 O 0.0 **** 0.0
8127 O 81.7527 51.7107 89.9959 O 0.0 **** 0.0
8128 C 86.1676 53.3893 83.6823 C 0.0 **** 0.0
8129 C 85.034 55.8936 84.8895 C 0.0 **** 0.0
8130 H 79.2404 48.5184 97.7028 H 0.0 **** 0.0
8131 H 77.9751 47.4185 97.0358 H 0.0 **** 0.0
8132 H 75.3616 47.4076 99.6447 H 0.0 **** 0.0
8133 H 76.1766 48.3908 100.93 H 0.0 **** 0.0
8134 H 78.3734 49.1942 95.507 H 0.0 **** 0.0
8135 H 81.2327 53.1544 95.2419 H 0.0 **** 0.0
8136 H 81.6898 53.5655 93.6458 H 0.0 **** 0.0
8137 H 81.6023 55.1414 95.9514 H 0.0 **** 0.0
8138 H 80.0889 56.775 96.0348 H 0.0 **** 0.0
8139 H 77.9344 55.6454 96.1677 H 0.0 **** 0.0
8140 H 79.2438 54.5063 96.7314 H 0.0 **** 0.0
8141 H 79.5771 46.6371 89.1406 H 0.0 **** 0.0
8142 H 79.087 47.9267 87.8493 H 0.0 **** 0.0
8143 H 80.8587 46.5812 86.9424 H 0.0 **** 0.0
8144 H 81.8515 46.5236 88.4891 H 0.0 **** 0.0
8145 H 83.8308 46.3517 86.4255 H 0.0 **** 0.0
8146 H 82.5204 46.5914 85.2625 H 0.0 **** 0.0
8147 H 83.9252 47.2733 83.6345 H 0.0 **** 0.0
8148 H 85.0889 46.2195 84.5142 H 0.0 **** 0.0
8149 H 86.0047 48.3995 83.7643 H 0.0 **** 0.0
8150 H 85.9998 48.3269 85.5596 H 0.0 **** 0.0
8151 H 83.8781 49.751 83.8566 H 0.0 **** 0.0
8152 H 86.3448 50.5921 85.3774 H 0.0 **** 0.0
8153 H 85.8072 50.9426 83.78 H 0.0 **** 0.0
8154 H 82.8415 53.2237 87.9477 H 0.0 **** 0.0
8155 H 83.5146 55.2851 87.1185 H 0.0 **** 0.0
8156 H 81.6643 44.6827 99.9342 H 0.0 **** 0.0
8157 H 81.1505 44.219 101.54 H 0.0 **** 0.0
8158 H 81.1897 46.7014 102.212 H 0.0 **** 0.0
8159 H 82.0422 47.1541 100.723 H 0.0 **** 0.0
8160 H 82.8386 45.974 101.969 H 0.0 **** 0.0
8161 H 77.822 44.1114 103.002 H 0.0 **** 0.0
8162 H 79.3982 44.9179 103.182 H 0.0 **** 0.0
8163 H 79.1968 43.436 102.119 H 0.0 **** 0.0
8164 H 80.2066 46.4757 97.0964 H 0.0 **** 0.0
8165 H 81.0775 45.278 97.9702 H 0.0 **** 0.0
8166 H 81.4109 46.9517 98.2853 H 0.0 **** 0.0
8167 H 75.9562 44.8401 101.763 H 0.0 **** 0.0
8168 H 75.5196 46.5609 101.883 H 0.0 **** 0.0
8169 H 76.6977 45.9544 102.999 H 0.0 **** 0.0
8170 H 73.3535 50.6584 99.6922 H 0.0 **** 0.0
8171 H 74.5016 50.7044 101.069 H 0.0 **** 0.0
8172 H 74.0484 49.134 100.399 H 0.0 **** 0.0
8173 H 74.5518 52.7363 99.8965 H 0.0 **** 0.0
8174 H 74.127 53.0221 98.1805 H 0.0 **** 0.0
8175 H 75.583 53.6315 98.9871 H 0.0 **** 0.0
8176 H 75.9961 54.3039 95.9279 H 0.0 **** 0.0
8177 H 79.5584 57.8321 93.9732 H 0.0 **** 0.0
8178 H 78.2766 56.6991 93.9996 H 0.0 **** 0.0
8179 H 79.6054 56.2051 93.0046 H 0.0 **** 0.0
8180 H 83.1591 55.7074 94.1296 H 0.0 **** 0.0
8181 H 82.2591 57.1698 94.5369 H 0.0 **** 0.0
8182 H 81.856 56.1644 93.0669 H 0.0 **** 0.0
8183 H 80.245 53.4425 90.2402 H 0.0 **** 0.0
8184 H 76.8946 49.1704 93.9384 H 0.0 **** 0.0
8185 H 87.1273 52.8093 83.8232 H 0.0 **** 0.0
8186 H 86.4788 54.4222 83.3532 H 0.0 **** 0.0
8187 H 85.5924 52.9257 82.8043 H 0.0 **** 0.0
8188 H 86.1016 56.1802 85.0199 H 0.0 **** 0.0
8189 H 84.4058 56.6721 85.3664 H 0.0 **** 0.0
8190 H 84.8423 55.9079 83.8148 H 0.0 **** 0.0
8191 C 97.5688 37.5161 48.3172 C 0.0 **** 0.0
8192 C 98.0013 38.4181 49.3345 C 0.0 **** 0.0
8193 C 98.7908 37.9359 50.4153 C 0.0 **** 0.0
8194 C 99.4511 36.7146 50.2529 C 0.0 **** 0.0
8195 C 99.1023 35.826 49.2306 C 0.0 **** 0.0
8196 C 98.1465 36.2286 48.2699 C 0.0 **** 0.0
8197 C 100.612 36.4865 51.237 C 0.0 **** 0.0
8198 C 100.014 36.5666 52.6134 C 0.0 **** 0.0
8199 C 99.2096 37.7275 52.8972 C 0.0 **** 0.0
8200 C 98.9736 38.6855 51.7116 C 0.0 **** 0.0
8201 C 98.6165 37.9119 54.1951 C 0.0 **** 0.0
8202 C 98.7996 36.9081 55.1437 C 0.0 **** 0.0
8203 C 99.6996 35.8215 54.9029 C 0.0 **** 0.0
8204 C 100.209 35.5487 53.5841 C 0.0 **** 0.0
8205 C 100.886 34.3196 53.3706 C 0.0 **** 0.0
8206 C 101.029 33.3511 54.4227 C 0.0 **** 0.0
8207 C 100.385 33.6017 55.6663 C 0.0 **** 0.0
8208 C 100.008 34.9342 55.9916 C 0.0 **** 0.0
8209 C 100.159 32.5412 56.7101 C 0.0 **** 0.0
8210 C 100.517 31.1452 56.1636 C 0.0 **** 0.0
8211 C 101.688 31.1371 55.2515 C 0.0 **** 0.0
8212 C 101.871 32.1737 54.2882 C 0.0 **** 0.0
8213 C 99.3259 30.3573 55.5015 C 0.0 **** 0.0
8214 C 98.1639 31.2733 54.9896 C 0.0 **** 0.0
8215 C 97.6254 32.1463 56.0621 C 0.0 **** 0.0
8216 C 98.6584 32.4944 57.1937 C 0.0 **** 0.0
8217 C 103.013 32.1123 53.4206 C 0.0 **** 0.0
8218 C 103.769 30.907 53.3217 C 0.0 **** 0.0
8219 C 103.646 29.9874 54.3656 C 0.0 **** 0.0
8220 C 102.591 30.091 55.3241 C 0.0 **** 0.0
8221 C 104.731 29.0082 54.5305 C 0.0 **** 0.0
8222 C 105.557 28.5834 53.343 C 0.0 **** 0.0
8223 C 105.43 29.2948 52.1661 C 0.0 **** 0.0
8224 C 104.658 30.5416 52.1777 C 0.0 **** 0.0
8225 C 106.164 28.9082 50.9001 C 0.0 **** 0.0
8226 C 106.456 27.4402 50.8852 C 0.0 **** 0.0
8227 C 106.97 26.9431 52.2508 C 0.0 **** 0.0
8228 C 106.46 27.5318 53.4317 C 0.0 **** 0.0
8229 N 106.807 27.0058 54.6314 N 0.0 **** 0.0
8230 C 107.663 25.9385 54.7976 C 0.0 **** 0.0
8231 C 108.184 25.3379 53.665 C 0.0 **** 0.0
8232 C 107.902 25.8839 52.3764 C 0.0 **** 0.0
8233 C 108.532 25.3311 51.1385 C 0.0 **** 0.0
8234 C 109.622 24.3319 51.4365 C 0.0 **** 0.0
8235 C 109.253 23.3506 52.5394 C 0.0 **** 0.0
8236 C 109.158 24.1854 53.7936 C 0.0 **** 0.0
8237 C 108.735 23.2835 54.9359 C 0.0 **** 0.0
8238 C 108.505 24.0983 56.1834 C 0.0 **** 0.0
8239 C 107.931 25.3875 56.0823 C 0.0 **** 0.0
8240 C 107.762 26.196 57.2319 C 0.0 **** 0.0
8241 C 108.104 25.695 58.4838 C 0.0 **** 0.0
8242 C 108.647 24.3995 58.64 C 0.0 **** 0.0
8243 C 108.825 23.5612 57.482 C 0.0 **** 0.0
8244 C 97.7663 35.3581 47.0482 C 0.0 **** 0.0
8245 C 96.4854 34.5373 47.2267 C 0.0 **** 0.0
8246 C 96.5081 37.9863 47.2739 C 0.0 **** 0.0
8247 C 99.6555 34.4288 49.2784 C 0.0 **** 0.0
8248 C 97.641 39.8359 49.2714 C 0.0 **** 0.0
8249 C 97.9171 39.237 54.4848 C 0.0 **** 0.0
8250 C 97.8333 36.8361 56.2734 C 0.0 **** 0.0
8251 O 99.9167 35.338 57.3489 O 0.0 **** 0.0
8252 C 96.3451 31.6098 56.7981 C 0.0 **** 0.0
8253 C 97.0662 30.4354 54.2299 C 0.0 **** 0.0
8254 O 102.409 29.1003 56.2994 O 0.0 **** 0.0
8255 O 103.385 33.2889 52.7055 O 0.0 **** 0.0
8256 O 104.747 31.2668 51.185 O 0.0 **** 0.0
8257 O 104.993 28.5897 55.6554 O 0.0 **** 0.0
8258 C 109.198 22.1253 57.6541 C 0.0 **** 0.0
8259 C 109.011 23.951 60.0648 C 0.0 **** 0.0
8260 H 101.199 35.5759 51.0521 H 0.0 **** 0.0
8261 H 101.312 37.3318 51.1358 H 0.0 **** 0.0
8262 H 99.9388 39.2795 51.6373 H 0.0 **** 0.0
8263 H 98.1092 39.3284 51.8199 H 0.0 **** 0.0
8264 H 101.14 34.035 52.3652 H 0.0 **** 0.0
8265 H 99.7098 29.7077 54.71 H 0.0 **** 0.0
8266 H 98.8728 29.6886 56.2798 H 0.0 **** 0.0
8267 H 98.6152 31.908 54.2073 H 0.0 **** 0.0
8268 H 97.3662 33.1144 55.6092 H 0.0 **** 0.0
8269 H 98.5836 31.7791 58.0836 H 0.0 **** 0.0
8270 H 98.3224 33.398 57.6956 H 0.0 **** 0.0
8271 H 105.592 29.1937 50.0548 H 0.0 **** 0.0
8272 H 107.097 29.5048 50.902 H 0.0 **** 0.0
8273 H 107.2 27.2627 50.0548 H 0.0 **** 0.0
8274 H 105.517 26.8805 50.6933 H 0.0 **** 0.0
8275 H 107.731 24.8235 50.5999 H 0.0 **** 0.0
8276 H 108.978 26.1316 50.5013 H 0.0 **** 0.0
8277 H 110.513 24.92 51.6721 H 0.0 **** 0.0
8278 H 109.863 23.7495 50.4872 H 0.0 **** 0.0
8279 H 109.985 22.5551 52.6316 H 0.0 **** 0.0
8280 H 108.242 22.9872 52.3657 H 0.0 **** 0.0
8281 H 110.184 24.5911 54.0758 H 0.0 **** 0.0
8282 H 107.751 22.7986 54.6635 H 0.0 **** 0.0
8283 H 109.567 22.5045 55.0422 H 0.0 **** 0.0
8284 H 107.353 27.1889 57.1025 H 0.0 **** 0.0
8285 H 108.06 26.358 59.3353 H 0.0 **** 0.0
8286 H 98.6007 34.6792 46.8707 H 0.0 **** 0.0
8287 H 97.7 35.9007 46.0881 H 0.0 **** 0.0
8288 H 95.6677 35.1636 47.6327 H 0.0 **** 0.0
8289 H 96.6648 33.6944 47.9414 H 0.0 **** 0.0
8290 H 96.1216 34.1202 46.2538 H 0.0 **** 0.0
8291 H 95.7887 38.7137 47.732 H 0.0 **** 0.0
8292 H 95.9891 37.1901 46.7831 H 0.0 **** 0.0
8293 H 97.0639 38.5081 46.461 H 0.0 **** 0.0
8294 H 100.677 34.432 48.8576 H 0.0 **** 0.0
8295 H 99.0515 33.7262 48.6742 H 0.0 **** 0.0
8296 H 99.5689 34.0422 50.3503 H 0.0 **** 0.0
8297 H 98.3822 40.4751 49.8011 H 0.0 **** 0.0
8298 H 96.6117 39.8882 49.664 H 0.0 **** 0.0
8299 H 97.5551 40.1692 48.2311 H 0.0 **** 0.0
8300 H 97.7707 39.3814 55.5664 H 0.0 **** 0.0
8301 H 96.8925 39.1564 53.9949 H 0.0 **** 0.0
8302 H 98.4622 40.0915 54.0383 H 0.0 **** 0.0
8303 H 97.6392 35.771 56.6378 H 0.0 **** 0.0
8304 H 96.8029 37.2845 56.0105 H 0.0 **** 0.0
8305 H 98.2586 37.4077 57.0874 H 0.0 **** 0.0
8306 H 100.189 34.6737 58.0509 H 0.0 **** 0.0
8307 H 95.5706 31.6261 56.0343 H 0.0 **** 0.0
8308 H 96.0219 32.2492 57.674 H 0.0 **** 0.0
8309 H 96.5177 30.5862 57.2078 H 0.0 **** 0.0
8310 H 97.6142 29.8975 53.3215 H 0.0 **** 0.0
8311 H 96.2115 31.0928 53.7845 H 0.0 **** 0.0
8312 H 96.541 29.7281 54.8735 H 0.0 **** 0.0
8313 H 102.562 28.1833 55.9291 H 0.0 **** 0.0
8314 H 104.289 33.3216 52.2936 H 0.0 **** 0.0
8315 H 108.559 21.5333 56.9724 H 0.0 **** 0.0
8316 H 109.178 21.8 58.7001 H 0.0 **** 0.0
8317 H 110.307 21.9705 57.4084 H 0.0 **** 0.0
8318 H 108.429 23.0408 60.3564 H 0.0 **** 0.0
8319 H 108.884 24.6963 60.8546 H 0.0 **** 0.0
8320 H 110.075 23.6523 60.0227 H 0.0 **** 0.0
8321 C 22.4645 54.8015 16.0966 C 0.0 **** 0.0
8322 C 23.6767 54.0284 16.1238 C 0.0 **** 0.0
8323 C 24.9324 54.6294 15.7242 C 0.0 **** 0.0
8324 C 25.0408 55.9904 15.6165 C 0.0 **** 0.0
8325 C 23.876 56.7909 15.7929 C 0.0 **** 0.0
8326 C 22.5863 56.207 15.9253 C 0.0 **** 0.0
8327 C 26.38 56.644 15.3768 C 0.0 **** 0.0
8328 C 27.5263 55.7846 14.9081 C 0.0 **** 0.0
8329 C 27.3786 54.4008 14.8681 C 0.0 **** 0.0
8330 C 26.1571 53.7253 15.5061 C 0.0 **** 0.0
8331 C 28.5122 53.6092 14.4581 C 0.0 **** 0.0
8332 C 29.5897 54.2492 13.7698 C 0.0 **** 0.0
8333 C 29.7097 55.6898 13.7821 C 0.0 **** 0.0
8334 C 28.7194 56.4111 14.4312 C 0.0 **** 0.0
8335 C 28.8797 57.8207 14.5288 C 0.0 **** 0.0
8336 C 29.7609 58.5388 13.6712 C 0.0 **** 0.0
8337 C 30.6922 57.7751 12.9596 C 0.0 **** 0.0
8338 C 30.8317 56.3876 13.2333 C 0.0 **** 0.0
8339 C 31.3584 58.3492 11.7354 C 0.0 **** 0.0
8340 C 30.8171 59.7436 11.3105 C 0.0 **** 0.0
8341 C 30.398 60.602 12.4788 C 0.0 **** 0.0
8342 C 29.8501 59.9979 13.6168 C 0.0 **** 0.0
8343 C 29.6968 59.6292 10.3088 C 0.0 **** 0.0
8344 C 30.243 58.9446 9.01398 C 0.0 **** 0.0
8345 C 31.4761 58.0338 9.19201 C 0.0 **** 0.0
8346 C 31.3539 57.3463 10.5465 C 0.0 **** 0.0
8347 C 29.6035 60.8025 14.7463 C 0.0 **** 0.0
8348 C 30.069 62.1472 14.7651 C 0.0 **** 0.0
8349 C 30.3505 62.8055 13.5705 C 0.0 **** 0.0
8350 C 30.4863 62.033 12.385 C 0.0 **** 0.0
8351 C 30.6924 64.2712 13.6012 C 0.0 **** 0.0
8352 C 31.3014 64.8882 14.8288 C 0.0 **** 0.0
8353 C 30.9783 64.287 16.0381 C 0.0 **** 0.0
8354 C 30.2336 62.9879 16.0035 C 0.0 **** 0.0
8355 C 31.3071 64.933 17.3615 C 0.0 **** 0.0
8356 C 32.6691 65.6153 17.3205 C 0.0 **** 0.0
8357 C 32.9956 66.2302 15.9732 C 0.0 **** 0.0
8358 C 32.2387 65.931 14.8211 C 0.0 **** 0.0
8359 N 32.6063 66.4567 13.6215 N 0.0 **** 0.0
8360 C 33.6227 67.3683 13.4813 C 0.0 **** 0.0
8361 C 34.4539 67.6324 14.6045 C 0.0 **** 0.0
8362 C 34.1291 67.0785 15.8746 C 0.0 **** 0.0
8363 C 34.983 67.3552 17.0756 C 0.0 **** 0.0
8364 C 36.4374 67.7043 16.7067 C 0.0 **** 0.0
8365 C 36.3955 68.8329 15.6844 C 0.0 **** 0.0
8366 C 35.7654 68.3007 14.3687 C 0.0 **** 0.0
8367 C 35.6777 69.4256 13.3365 C 0.0 **** 0.0
8368 C 34.9001 68.9988 12.1138 C 0.0 **** 0.0
8369 C 33.92 67.9561 12.2227 C 0.0 **** 0.0
8370 C 33.1336 67.6147 11.0902 C 0.0 **** 0.0
8371 C 33.2288 68.3907 9.93355 C 0.0 **** 0.0
8372 C 34.1923 69.4131 9.79418 C 0.0 **** 0.0
8373 C 34.9858 69.7408 10.9036 C 0.0 **** 0.0
8374 C 21.2772 57.0765 15.9422 C 0.0 **** 0.0
8375 C 20.8832 57.5178 14.5136 C 0.0 **** 0.0
8376 C 21.099 54.164 16.4461 C 0.0 **** 0.0
8377 C 24.0062 58.3311 15.6895 C 0.0 **** 0.0
8378 C 23.6434 52.5562 16.5681 C 0.0 **** 0.0
8379 C 28.3287 52.1065 14.3969 C 0.0 **** 0.0
8380 C 30.5 53.4066 12.8911 C 0.0 **** 0.0
8381 O 32.0391 55.7233 12.9971 O 0.0 **** 0.0
8382 C 32.8357 58.768 9.11023 C 0.0 **** 0.0
8383 C 30.4285 60.0707 7.9819 C 0.0 **** 0.0
8384 O 30.7519 62.5633 11.0928 O 0.0 **** 0.0
8385 O 29.0445 60.2849 15.9111 O 0.0 **** 0.0
8386 O 29.815 62.5945 17.0812 O 0.0 **** 0.0
8387 O 30.4849 64.9856 12.6486 O 0.0 **** 0.0
8388 C 35.9682 70.8916 10.7851 C 0.0 **** 0.0
8389 C 34.1799 70.1723 8.54559 C 0.0 **** 0.0
8390 H 26.207 57.4221 14.6441 H 0.0 **** 0.0
8391 H 26.7124 57.1234 16.3117 H 0.0 **** 0.0
8392 H 26.5419 53.2865 16.4526 H 0.0 **** 0.0
8393 H 25.7798 52.854 14.8871 H 0.0 **** 0.0
8394 H 28.079 58.4287 14.9622 H 0.0 **** 0.0
8395 H 28.8597 59.0122 10.6748 H 0.0 **** 0.0
8396 H 29.3005 60.6639 10.0765 H 0.0 **** 0.0
8397 H 29.4491 58.2964 8.67219 H 0.0 **** 0.0
8398 H 31.4015 57.2827 8.38867 H 0.0 **** 0.0
8399 H 32.2138 56.6311 10.6566 H 0.0 **** 0.0
8400 H 30.4646 56.7452 10.4984 H 0.0 **** 0.0
8401 H 30.58 65.7323 17.5789 H 0.0 **** 0.0
8402 H 31.335 64.2412 18.1967 H 0.0 **** 0.0
8403 H 33.4984 64.8754 17.5325 H 0.0 **** 0.0
8404 H 32.6916 66.3783 18.1073 H 0.0 **** 0.0
8405 H 34.5151 68.1883 17.6365 H 0.0 **** 0.0
8406 H 35.045 66.5028 17.7414 H 0.0 **** 0.0
8407 H 36.9984 66.7982 16.3162 H 0.0 **** 0.0
8408 H 36.8925 68.0953 17.67 H 0.0 **** 0.0
8409 H 37.3989 69.17 15.4933 H 0.0 **** 0.0
8410 H 35.8294 69.71 16.0881 H 0.0 **** 0.0
8411 H 36.4938 67.557 14.0716 H 0.0 **** 0.0
8412 H 35.242 70.3749 13.7251 H 0.0 **** 0.0
8413 H 36.7496 69.6231 13.0319 H 0.0 **** 0.0
8414 H 32.4271 66.8192 11.1283 H 0.0 **** 0.0
8415 H 32.5283 68.2366 9.15813 H 0.0 **** 0.0
8416 H 21.424 57.9583 16.5332 H 0.0 **** 0.0
8417 H 20.415 56.5283 16.4166 H 0.0 **** 0.0
8418 H 20.4818 56.6804 13.9416 H 0.0 **** 0.0
8419 H 21.7456 57.9427 13.9821 H 0.0 **** 0.0
8420 H 20.0828 58.314 14.6513 H 0.0 **** 0.0
8421 H 21.1739 53.0656 16.5305 H 0.0 **** 0.0
8422 H 20.317 54.4438 15.6826 H 0.0 **** 0.0
8423 H 20.7256 54.5102 17.4204 H 0.0 **** 0.0
8424 H 25.0085 58.742 16.0405 H 0.0 **** 0.0
8425 H 23.3227 58.8474 16.43 H 0.0 **** 0.0
8426 H 23.8225 58.6927 14.6567 H 0.0 **** 0.0
8427 H 24.6237 52.0228 16.6082 H 0.0 **** 0.0
8428 H 23.0453 51.9252 15.8795 H 0.0 **** 0.0
8429 H 23.2347 52.5256 17.6189 H 0.0 **** 0.0
8430 H 29.3486 51.5781 14.2551 H 0.0 **** 0.0
8431 H 27.5578 51.7419 13.6544 H 0.0 **** 0.0
8432 H 28.0467 51.7499 15.3861 H 0.0 **** 0.0
8433 H 30.8046 53.9729 11.9402 H 0.0 **** 0.0
8434 H 30.0174 52.4388 12.4987 H 0.0 **** 0.0
8435 H 31.3996 53.0927 13.4711 H 0.0 **** 0.0
8436 H 32.7727 56.3741 12.7459 H 0.0 **** 0.0
8437 H 32.9456 59.2159 8.14763 H 0.0 **** 0.0
8438 H 33.642 58.0013 9.28119 H 0.0 **** 0.0
8439 H 32.9803 59.4912 9.91693 H 0.0 **** 0.0
8440 H 29.4624 60.5755 7.75192 H 0.0 **** 0.0
8441 H 30.9409 59.7208 7.04076 H 0.0 **** 0.0
8442 H 31.0321 60.8986 8.47369 H 0.0 **** 0.0
8443 H 30.7712 63.5482 10.9966 H 0.0 **** 0.0
8444 H 28.5005 60.8951 16.459 H 0.0 **** 0.0
8445 H 35.7717 71.7077 11.5036 H 0.0 **** 0.0
8446 H 35.9799 71.3554 9.78396 H 0.0 **** 0.0
8447 H 36.9926 70.4776 10.912 H 0.0 **** 0.0
8448 H 34.0591 71.2239 8.80003 H 0.0 **** 0.0
8449 H 33.3481 69.8595 7.83741 H 0.0 **** 0.0
8450 H 35.2144 70.0274 8.06707 H 0.0 **** 0.0
8451 C 2.91434 15.4739 96.9794 C 0.0 **** 0.0
8452 C 3.39079 16.4943 97.8468 C 0.0 **** 0.0
8453 C 4.76493 16.5858 98.1444 C 0.0 **** 0.0
8454 C 5.64054 15.5785 97.6573 C 0.0 **** 0.0
8455 C 5.138 14.4321 96.9883 C 0.0 **** 0.0
8456 C 3.78825 14.4232 96.6023 C 0.0 **** 0.0
8457 C 7.13793 15.6989 97.8773 C 0.0 **** 0.0
8458 C 7.68533 16.9885 98.4009 C 0.0 **** 0.0
8459 C 6.84313 18.0082 98.7585 C 0.0 **** 0.0
8460 C 5.33428 17.88 98.7187 C 0.0 **** 0.0
8461 C 7.40326 19.2296 99.1117 C 0.0 **** 0.0
8462 C 8.81512 19.3946 99.1467 C 0.0 **** 0.0
8463 C 9.67798 18.3202 98.7281 C 0.0 **** 0.0
8464 C 9.1151 17.1011 98.4634 C 0.0 **** 0.0
8465 C 9.99677 16.0267 98.2204 C 0.0 **** 0.0
8466 C 11.3832 16.0931 98.3986 C 0.0 **** 0.0
8467 C 11.9378 17.3402 98.6504 C 0.0 **** 0.0
8468 C 11.0897 18.4939 98.5755 C 0.0 **** 0.0
8469 C 13.3897 17.4222 99.1906 C 0.0 **** 0.0
8470 C 13.8888 16.0958 99.8009 C 0.0 **** 0.0
8471 C 13.3609 14.8486 99.036 C 0.0 **** 0.0
8472 C 12.1918 14.9123 98.2531 C 0.0 **** 0.0
8473 C 13.7091 16.0574 101.361 C 0.0 **** 0.0
8474 C 12.5457 16.9554 101.859 C 0.0 **** 0.0
8475 C 12.7714 18.4074 101.474 C 0.0 **** 0.0
8476 C 13.6792 18.542 100.214 C 0.0 **** 0.0
8477 C 11.8128 13.828 97.4633 C 0.0 **** 0.0
8478 C 12.5205 12.5832 97.6003 C 0.0 **** 0.0
8479 C 13.5743 12.4355 98.5402 C 0.0 **** 0.0
8480 C 14.0183 13.62 99.1863 C 0.0 **** 0.0
8481 C 14.2327 11.1044 98.7255 C 0.0 **** 0.0
8482 C 13.7081 9.90301 98.0235 C 0.0 **** 0.0
8483 C 12.8161 10.0417 96.9965 C 0.0 **** 0.0
8484 C 12.2936 11.4183 96.6829 C 0.0 **** 0.0
8485 C 12.5511 8.85027 96.0267 C 0.0 **** 0.0
8486 C 12.6502 7.46511 96.7062 C 0.0 **** 0.0
8487 C 13.8572 7.43241 97.6043 C 0.0 **** 0.0
8488 C 14.1829 8.59887 98.3441 C 0.0 **** 0.0
8489 N 15.0922 8.47803 99.3242 N 0.0 **** 0.0
8490 C 15.6696 7.31601 99.7331 C 0.0 **** 0.0
8491 C 15.2858 6.12849 99.111 C 0.0 **** 0.0
8492 C 14.4269 6.15641 97.9716 C 0.0 **** 0.0
8493 C 14.1201 4.85988 97.2168 C 0.0 **** 0.0
8494 C 14.8594 3.60515 97.7025 C 0.0 **** 0.0
8495 C 15.1869 3.56578 99.1882 C 0.0 **** 0.0
8496 C 15.9219 4.82231 99.5728 C 0.0 **** 0.0
8497 C 16.1583 4.82885 101.113 C 0.0 **** 0.0
8498 C 16.6978 6.15186 101.625 C 0.0 **** 0.0
8499 C 16.5103 7.3391 100.849 C 0.0 **** 0.0
8500 C 17.0903 8.55371 101.285 C 0.0 **** 0.0
8501 C 17.6249 8.61089 102.551 C 0.0 **** 0.0
8502 C 17.6932 7.48756 103.38 C 0.0 **** 0.0
8503 C 17.2893 6.1938 102.901 C 0.0 **** 0.0
8504 C 3.37423 13.3443 95.5591 C 0.0 **** 0.0
8505 C 2.54044 12.313 96.3037 C 0.0 **** 0.0
8506 C 1.49235 15.5494 96.5064 C 0.0 **** 0.0
8507 C 6.0845 13.3038 96.646 C 0.0 **** 0.0
8508 C 2.46751 17.6644 98.1722 C 0.0 **** 0.0
8509 C 6.52684 20.3524 99.6835 C 0.0 **** 0.0
8510 C 9.40862 20.579 99.8199 C 0.0 **** 0.0
8511 O 11.5707 19.7296 98.2086 O 0.0 **** 0.0
8512 C 13.361 19.2717 102.632 C 0.0 **** 0.0
8513 C 12.2278 16.6758 103.326 C 0.0 **** 0.0
8514 O 15.1563 13.5391 99.9102 O 0.0 **** 0.0
8515 O 10.8602 13.9778 96.5341 O 0.0 **** 0.0
8516 O 11.7792 11.6394 95.5863 O 0.0 **** 0.0
8517 O 15.1814 11.0247 99.4791 O 0.0 **** 0.0
8518 C 17.4047 4.91871 103.768 C 0.0 **** 0.0
8519 C 18.1792 7.65585 104.766 C 0.0 **** 0.0
8520 H 7.4447 14.8987 98.6 H 0.0 **** 0.0
8521 H 7.59001 15.4505 96.8912 H 0.0 **** 0.0
8522 H 4.8994 18.7439 98.1412 H 0.0 **** 0.0
8523 H 5.03162 17.8852 99.7784 H 0.0 **** 0.0
8524 H 9.56596 15.0303 98.195 H 0.0 **** 0.0
8525 H 13.4899 15.0277 101.593 H 0.0 **** 0.0
8526 H 14.6815 16.2682 101.846 H 0.0 **** 0.0
8527 H 11.6626 16.6369 101.281 H 0.0 **** 0.0
8528 H 11.7641 18.8281 101.307 H 0.0 **** 0.0
8529 H 14.7875 18.5612 100.465 H 0.0 **** 0.0
8530 H 13.4926 19.4851 99.6801 H 0.0 **** 0.0
8531 H 11.5329 8.9582 95.5915 H 0.0 **** 0.0
8532 H 13.2717 8.92041 95.2189 H 0.0 **** 0.0
8533 H 12.6546 6.69053 95.9289 H 0.0 **** 0.0
8534 H 11.7114 7.40163 97.3486 H 0.0 **** 0.0
8535 H 13.0376 4.61661 97.2694 H 0.0 **** 0.0
8536 H 14.3001 5.05702 96.1494 H 0.0 **** 0.0
8537 H 15.8486 3.57962 97.1624 H 0.0 **** 0.0
8538 H 14.3134 2.71506 97.4125 H 0.0 **** 0.0
8539 H 15.8271 2.6574 99.4641 H 0.0 **** 0.0
8540 H 14.2536 3.50101 99.7769 H 0.0 **** 0.0
8541 H 16.9346 4.80497 99.1174 H 0.0 **** 0.0
8542 H 15.2533 4.63929 101.649 H 0.0 **** 0.0
8543 H 16.8926 4.04503 101.336 H 0.0 **** 0.0
8544 H 16.944 9.45622 100.769 H 0.0 **** 0.0
8545 H 17.8989 9.60556 102.986 H 0.0 **** 0.0
8546 H 4.19556 12.8073 95.0429 H 0.0 **** 0.0
8547 H 2.80805 13.8312 94.7384 H 0.0 **** 0.0
8548 H 1.62608 12.7752 96.7257 H 0.0 **** 0.0
8549 H 3.05602 11.8449 97.1336 H 0.0 **** 0.0
8550 H 2.20506 11.5399 95.6245 H 0.0 **** 0.0
8551 H 0.871932 15.3387 97.4094 H 0.0 **** 0.0
8552 H 1.11564 14.8213 95.8033 H 0.0 **** 0.0
8553 H 1.29849 16.5374 96.116 H 0.0 **** 0.0
8554 H 6.99641 13.2117 97.2142 H 0.0 **** 0.0
8555 H 6.3455 13.3961 95.6054 H 0.0 **** 0.0
8556 H 5.54893 12.3675 96.8607 H 0.0 **** 0.0
8557 H 2.57853 18.3906 97.291 H 0.0 **** 0.0
8558 H 2.7896 18.1877 99.1299 H 0.0 **** 0.0
8559 H 1.43856 17.326 98.3688 H 0.0 **** 0.0
8560 H 6.96215 21.3657 99.4862 H 0.0 **** 0.0
8561 H 6.39761 20.2366 100.829 H 0.0 **** 0.0
8562 H 5.49806 20.4212 99.2242 H 0.0 **** 0.0
8563 H 9.29992 21.4292 99.1172 H 0.0 **** 0.0
8564 H 10.5009 20.4034 100.018 H 0.0 **** 0.0
8565 H 8.77004 20.8007 100.744 H 0.0 **** 0.0
8566 H 12.5019 19.7332 97.7266 H 0.0 **** 0.0
8567 H 12.6879 19.2051 103.451 H 0.0 **** 0.0
8568 H 13.5434 20.336 102.289 H 0.0 **** 0.0
8569 H 14.3675 18.8723 102.891 H 0.0 **** 0.0
8570 H 12.0181 15.6263 103.459 H 0.0 **** 0.0
8571 H 11.2899 17.2226 103.604 H 0.0 **** 0.0
8572 H 13.0631 16.9627 103.996 H 0.0 **** 0.0
8573 H 15.9263 14.042 99.4861 H 0.0 **** 0.0
8574 H 10.2298 13.2012 96.4717 H 0.0 **** 0.0
8575 H 16.3617 4.66518 104.077 H 0.0 **** 0.0
8576 H 18.0667 5.10889 104.677 H 0.0 **** 0.0
8577 H 17.8946 4.12404 103.22 H 0.0 **** 0.0
8578 H 17.421 7.31277 105.542 H 0.0 **** 0.0
8579 H 18.3612 8.73164 105.054 H 0.0 **** 0.0
8580 H 19.1596 7.18629 104.88 H 0.0 **** 0.0
8581 C 43.3624 43.945 75.8489 C 0.0 **** 0.0
8582 C 43.9142 42.6766 76.2714 C 0.0 **** 0.0
8583 C 43.9548 42.4102 77.6499 C 0.0 **** 0.0
8584 C 43.3631 43.2565 78.6054 C 0.0 **** 0.0
8585 C 42.6595 44.4155 78.1692 C 0.0 **** 0.0
8586 C 42.6462 44.7472 76.7843 C 0.0 **** 0.0
8587 C 43.4951 43.0496 80.1151 C 0.0 **** 0.0
8588 C 44.3077 41.8708 80.55 C 0.0 **** 0.0
8589 C 44.9676 41.081 79.5835 C 0.0 **** 0.0
8590 C 44.6993 41.193 78.101 C 0.0 **** 0.0
8591 C 45.9343 40.1439 80.0086 C 0.0 **** 0.0
8592 C 46.2082 39.9931 81.3699 C 0.0 **** 0.0
8593 C 45.2822 40.4425 82.301 C 0.0 **** 0.0
8594 C 44.4676 41.5178 81.9698 C 0.0 **** 0.0
8595 C 43.7557 42.1878 83.0549 C 0.0 **** 0.0
8596 C 43.8599 41.7089 84.4447 C 0.0 **** 0.0
8597 C 44.6347 40.5228 84.6719 C 0.0 **** 0.0
8598 C 45.2149 39.8473 83.5871 C 0.0 **** 0.0
8599 C 44.7256 40.0101 86.1357 C 0.0 **** 0.0
8600 C 44.8346 41.1985 87.1428 C 0.0 **** 0.0
8601 C 43.751 42.1878 86.8858 C 0.0 **** 0.0
8602 C 43.2549 42.3511 85.5714 C 0.0 **** 0.0
8603 C 46.1927 41.8854 86.9273 C 0.0 **** 0.0
8604 C 47.362 40.9248 87.2489 C 0.0 **** 0.0
8605 C 47.2544 39.7524 86.3914 C 0.0 **** 0.0
8606 C 45.8639 39.0631 86.4947 C 0.0 **** 0.0
8607 C 42.1192 43.1616 85.3696 C 0.0 **** 0.0
8608 C 41.7631 44.1135 86.3793 C 0.0 **** 0.0
8609 C 42.3202 44.0252 87.6844 C 0.0 **** 0.0
8610 C 43.2823 42.9916 87.9532 C 0.0 **** 0.0
8611 C 41.8665 45.0282 88.7298 C 0.0 **** 0.0
8612 C 41.3022 46.3364 88.2634 C 0.0 **** 0.0
8613 C 40.961 46.4636 86.91 C 0.0 **** 0.0
8614 C 41.0039 45.327 86.0152 C 0.0 **** 0.0
8615 C 40.2609 47.748 86.4039 C 0.0 **** 0.0
8616 C 40.9168 48.9371 87.0488 C 0.0 **** 0.0
8617 C 40.8962 48.7468 88.5428 C 0.0 **** 0.0
8618 C 41.0465 47.4559 89.1041 C 0.0 **** 0.0
8619 N 40.9777 47.3072 90.4388 N 0.0 **** 0.0
8620 C 40.874 48.3655 91.3004 C 0.0 **** 0.0
8621 C 40.9112 49.6864 90.7763 C 0.0 **** 0.0
8622 C 40.913 49.8654 89.3845 C 0.0 **** 0.0
8623 C 41.1816 51.2229 88.7712 C 0.0 **** 0.0
8624 C 41.0075 52.3918 89.7293 C 0.0 **** 0.0
8625 C 41.6385 52.0456 91.0773 C 0.0 **** 0.0
8626 C 41.0056 50.8414 91.7453 C 0.0 **** 0.0
8627 C 41.872 50.4486 92.9674 C 0.0 **** 0.0
8628 C 41.4357 49.1107 93.5855 C 0.0 **** 0.0
8629 C 40.9234 48.1071 92.6867 C 0.0 **** 0.0
8630 C 40.5648 46.8326 93.177 C 0.0 **** 0.0
8631 C 40.7803 46.4969 94.5029 C 0.0 **** 0.0
8632 C 41.3802 47.4241 95.3932 C 0.0 **** 0.0
8633 C 41.6774 48.7552 94.9646 C 0.0 **** 0.0
8634 C 41.8269 45.904 76.3119 C 0.0 **** 0.0
8635 C 42.6187 47.1977 76.3613 C 0.0 **** 0.0
8636 C 43.5928 44.4174 74.4315 C 0.0 **** 0.0
8637 C 42.0159 45.373 79.2016 C 0.0 **** 0.0
8638 C 44.6165 41.7439 75.2645 C 0.0 **** 0.0
8639 C 46.6207 39.2195 79.0727 C 0.0 **** 0.0
8640 C 47.5546 39.5678 81.776 C 0.0 **** 0.0
8641 O 45.566 38.4969 83.7203 O 0.0 **** 0.0
8642 C 48.3883 38.6998 86.5518 C 0.0 **** 0.0
8643 C 47.5309 40.643 88.7983 C 0.0 **** 0.0
8644 O 44.0055 42.8467 89.1462 O 0.0 **** 0.0
8645 O 41.3574 43.0034 84.2105 O 0.0 **** 0.0
8646 O 40.5287 45.4209 84.9033 O 0.0 **** 0.0
8647 O 41.8808 44.8026 89.942 O 0.0 **** 0.0
8648 C 42.3308 49.7824 95.899 C 0.0 **** 0.0
8649 C 41.9002 46.8698 96.6701 C 0.0 **** 0.0
8650 H 44.0151 43.9119 80.6234 H 0.0 **** 0.0
8651 H 42.5316 42.9544 80.5685 H 0.0 **** 0.0
8652 H 44.2236 40.2594 77.8277 H 0.0 **** 0.0
8653 H 45.6806 41.2904 77.6165 H 0.0 **** 0.0
8654 H 43.241 43.1102 82.8205 H 0.0 **** 0.0
8655 H 46.3123 42.33 85.9337 H 0.0 **** 0.0
8656 H 46.2454 42.7785 87.5707 H 0.0 **** 0.0
8657 H 48.2967 41.4868 86.9558 H 0.0 **** 0.0
8658 H 47.3035 40.0367 85.3395 H 0.0 **** 0.0
8659 H 45.6661 38.6453 87.494 H 0.0 **** 0.0
8660 H 45.8122 38.1605 85.8859 H 0.0 **** 0.0
8661 H 40.2286 47.7738 85.2692 H 0.0 **** 0.0
8662 H 39.2546 47.7051 86.7849 H 0.0 **** 0.0
8663 H 40.2477 49.8046 86.7077 H 0.0 **** 0.0
8664 H 41.9473 49.157 86.6845 H 0.0 **** 0.0
8665 H 42.227 51.2171 88.4388 H 0.0 **** 0.0
8666 H 40.5637 51.4786 87.8764 H 0.0 **** 0.0
8667 H 39.9237 52.5296 89.869 H 0.0 **** 0.0
8668 H 41.4513 53.3429 89.2631 H 0.0 **** 0.0
8669 H 41.5187 52.9117 91.7732 H 0.0 **** 0.0
8670 H 42.7376 51.8908 90.983 H 0.0 **** 0.0
8671 H 39.982 51.0609 92.0979 H 0.0 **** 0.0
8672 H 42.9023 50.2178 92.5806 H 0.0 **** 0.0
8673 H 41.944 51.2699 93.689 H 0.0 **** 0.0
8674 H 40.2861 46.0617 92.4844 H 0.0 **** 0.0
8675 H 40.5541 45.4839 94.8045 H 0.0 **** 0.0
8676 H 40.8695 45.9935 76.7929 H 0.0 **** 0.0
8677 H 41.5099 45.6698 75.2776 H 0.0 **** 0.0
8678 H 43.5273 47.0443 75.7742 H 0.0 **** 0.0
8679 H 42.8935 47.4494 77.41 H 0.0 **** 0.0
8680 H 42.0633 48.0805 75.9129 H 0.0 **** 0.0
8681 H 43.5762 45.5017 74.2851 H 0.0 **** 0.0
8682 H 42.8383 43.9634 73.7704 H 0.0 **** 0.0
8683 H 44.591 44.175 74.086 H 0.0 **** 0.0
8684 H 42.6498 45.5592 80.0601 H 0.0 **** 0.0
8685 H 41.0094 44.9529 79.6034 H 0.0 **** 0.0
8686 H 41.7854 46.3395 78.7849 H 0.0 **** 0.0
8687 H 44.5036 40.6576 75.4635 H 0.0 **** 0.0
8688 H 45.6964 41.9646 75.1383 H 0.0 **** 0.0
8689 H 44.1029 41.8673 74.2844 H 0.0 **** 0.0
8690 H 46.5089 38.2089 79.5084 H 0.0 **** 0.0
8691 H 47.6659 39.5559 79.0028 H 0.0 **** 0.0
8692 H 46.1126 39.1359 78.0884 H 0.0 **** 0.0
8693 H 47.7029 39.4861 82.9121 H 0.0 **** 0.0
8694 H 48.3058 40.3188 81.4874 H 0.0 **** 0.0
8695 H 47.8666 38.6224 81.2859 H 0.0 **** 0.0
8696 H 45.6355 37.948 82.8548 H 0.0 **** 0.0
8697 H 49.3556 39.1605 86.2446 H 0.0 **** 0.0
8698 H 48.27 37.7765 85.9151 H 0.0 **** 0.0
8699 H 48.4242 38.3532 87.5929 H 0.0 **** 0.0
8700 H 47.3718 41.6261 89.3089 H 0.0 **** 0.0
8701 H 48.5287 40.2204 89.0723 H 0.0 **** 0.0
8702 H 46.6808 40.0334 89.1689 H 0.0 **** 0.0
8703 H 43.8169 43.5359 89.849 H 0.0 **** 0.0
8704 H 40.4197 43.1963 84.3603 H 0.0 **** 0.0
8705 H 43.3431 50.0643 95.5572 H 0.0 **** 0.0
8706 H 42.3358 49.4238 96.9517 H 0.0 **** 0.0
8707 H 41.7233 50.679 95.9819 H 0.0 **** 0.0
8708 H 42.9872 47.0769 96.7523 H 0.0 **** 0.0
8709 H 41.8166 45.7641 96.7027 H 0.0 **** 0.0
8710 H 41.3438 47.3423 97.5529 H 0.0 **** 0.0
8711 C 92.0936 35.4801 20.4462 C 0.0 **** 0.0
8712 C 91.9622 36.5876 19.6521 C 0.0 **** 0.0
8713 C 92.5062 37.8404 20.0608 C 0.0 **** 0.0
8714 C 93.021 37.979 21.3706 C 0.0 **** 0.0
8715 C 93.1708 36.8727 22.2242 C 0.0 **** 0.0
8716 C 92.6965 35.5927 21.7404 C 0.0 **** 0.0
8717 C 93.5644 39.3612 21.8319 C 0.0 **** 0.0
8718 C 93.6254 40.4899 20.8264 C 0.0 **** 0.0
8719 C 93.1512 40.3234 19.5343 C 0.0 **** 0.0
8720 C 92.4889 39.0101 19.1072 C 0.0 **** 0.0
8721 C 93.1876 41.4247 18.6134 C 0.0 **** 0.0
8722 C 93.762 42.674 19.0006 C 0.0 **** 0.0
8723 C 94.6111 42.6659 20.1581 C 0.0 **** 0.0
8724 C 94.4232 41.6756 21.1457 C 0.0 **** 0.0
8725 C 95.0869 41.8195 22.347 C 0.0 **** 0.0
8726 C 96.0257 42.8887 22.5745 C 0.0 **** 0.0
8727 C 96.1954 43.8395 21.5613 C 0.0 **** 0.0
8728 C 95.6395 43.6518 20.2853 C 0.0 **** 0.0
8729 C 96.9491 45.1169 21.8398 C 0.0 **** 0.0
8730 C 97.8921 45.049 23.0437 C 0.0 **** 0.0
8731 C 97.3714 44.2231 24.1931 C 0.0 **** 0.0
8732 C 96.7729 42.9868 23.7996 C 0.0 **** 0.0
8733 C 98.6099 46.402 23.2726 C 0.0 **** 0.0
8734 C 97.6175 47.6093 23.2597 C 0.0 **** 0.0
8735 C 96.7108 47.5852 22.0964 C 0.0 **** 0.0
8736 C 95.952 46.2679 22.0222 C 0.0 **** 0.0
8737 C 96.9024 41.8688 24.6528 C 0.0 **** 0.0
8738 C 97.5804 41.9824 25.8965 C 0.0 **** 0.0
8739 C 97.9215 43.2762 26.3871 C 0.0 **** 0.0
8740 C 97.7485 44.4156 25.5362 C 0.0 **** 0.0
8741 C 98.5158 43.3841 27.7622 C 0.0 **** 0.0
8742 C 98.8332 42.1453 28.4963 C 0.0 **** 0.0
8743 C 98.7654 40.9114 27.8381 C 0.0 **** 0.0
8744 C 97.8683 40.7884 26.7053 C 0.0 **** 0.0
8745 C 99.5874 39.7596 28.3146 C 0.0 **** 0.0
8746 C 99.476 39.5635 29.8027 C 0.0 **** 0.0
8747 C 99.309 40.8843 30.5834 C 0.0 **** 0.0
8748 C 99.0286 42.106 29.8838 C 0.0 **** 0.0
8749 N 99.0048 43.2578 30.5899 N 0.0 **** 0.0
8750 C 99.2663 43.3523 31.9196 C 0.0 **** 0.0
8751 C 99.5393 42.1863 32.6328 C 0.0 **** 0.0
8752 C 99.5559 40.9369 31.9603 C 0.0 **** 0.0
8753 C 99.8517 39.6285 32.7195 C 0.0 **** 0.0
8754 C 100.342 39.8165 34.1484 C 0.0 **** 0.0
8755 C 99.5628 40.9539 34.8051 C 0.0 **** 0.0
8756 C 99.8561 42.2802 34.0935 C 0.0 **** 0.0
8757 C 99.1967 43.4614 34.7551 C 0.0 **** 0.0
8758 C 99.2764 44.7318 33.9438 C 0.0 **** 0.0
8759 C 99.2644 44.6218 32.5253 C 0.0 **** 0.0
8760 C 99.2813 45.807 31.771 C 0.0 **** 0.0
8761 C 99.3876 47.0346 32.4213 C 0.0 **** 0.0
8762 C 99.2355 47.1897 33.778 C 0.0 **** 0.0
8763 C 99.1038 46.0109 34.5465 C 0.0 **** 0.0
8764 C 92.936 34.3639 22.6124 C 0.0 **** 0.0
8765 C 91.6744 33.9257 23.3954 C 0.0 **** 0.0
8766 C 91.5736 34.165 19.9146 C 0.0 **** 0.0
8767 C 93.8207 36.9732 23.603 C 0.0 **** 0.0
8768 C 91.2327 36.462 18.3065 C 0.0 **** 0.0
8769 C 92.538 41.2088 17.2481 C 0.0 **** 0.0
8770 C 93.459 43.9701 18.2634 C 0.0 **** 0.0
8771 O 96.1299 44.3439 19.2017 O 0.0 **** 0.0
8772 C 97.3787 47.9292 20.7925 C 0.0 **** 0.0
8773 C 98.3399 48.9802 23.4743 C 0.0 **** 0.0
8774 O 97.8451 45.6941 26.0415 O 0.0 **** 0.0
8775 O 96.6665 40.5946 24.1517 O 0.0 **** 0.0
8776 O 97.2247 39.7506 26.5455 O 0.0 **** 0.0
8777 O 98.7834 44.4944 28.2109 O 0.0 **** 0.0
8778 C 98.8049 46.062 36.0146 C 0.0 **** 0.0
8779 C 99.4457 48.5698 34.3635 C 0.0 **** 0.0
8780 H 92.9644 39.6339 22.7205 H 0.0 **** 0.0
8781 H 94.6231 39.2019 22.1727 H 0.0 **** 0.0
8782 H 93.0288 38.7088 18.2057 H 0.0 **** 0.0
8783 H 91.4551 39.2524 18.8982 H 0.0 **** 0.0
8784 H 94.772 41.2102 23.1773 H 0.0 **** 0.0
8785 H 99.3124 46.3767 24.1677 H 0.0 **** 0.0
8786 H 99.2628 46.5825 22.3829 H 0.0 **** 0.0
8787 H 96.9906 47.4471 24.1586 H 0.0 **** 0.0
8788 H 95.9129 48.3725 22.2743 H 0.0 **** 0.0
8789 H 95.2175 46.3589 21.1734 H 0.0 **** 0.0
8790 H 95.3326 46.117 22.9085 H 0.0 **** 0.0
8791 H 99.383 38.8431 27.7838 H 0.0 **** 0.0
8792 H 100.651 39.9628 28.0551 H 0.0 **** 0.0
8793 H 100.337 38.9728 30.1155 H 0.0 **** 0.0
8794 H 98.5311 38.9215 30.0173 H 0.0 **** 0.0
8795 H 98.9834 38.9514 32.7234 H 0.0 **** 0.0
8796 H 100.679 39.0663 32.2387 H 0.0 **** 0.0
8797 H 101.386 40.1308 34.1901 H 0.0 **** 0.0
8798 H 100.193 38.846 34.7198 H 0.0 **** 0.0
8799 H 99.8544 41.0184 35.9167 H 0.0 **** 0.0
8800 H 98.5211 40.7088 34.8244 H 0.0 **** 0.0
8801 H 100.925 42.4925 34.0952 H 0.0 **** 0.0
8802 H 98.0652 43.2763 35.0144 H 0.0 **** 0.0
8803 H 99.7449 43.579 35.7183 H 0.0 **** 0.0
8804 H 99.3652 45.7842 30.7087 H 0.0 **** 0.0
8805 H 99.5408 47.9618 31.8676 H 0.0 **** 0.0
8806 H 93.8071 34.5003 23.2552 H 0.0 **** 0.0
8807 H 93.2592 33.5225 22.0041 H 0.0 **** 0.0
8808 H 90.7892 33.9054 22.7331 H 0.0 **** 0.0
8809 H 91.522 34.6875 24.1602 H 0.0 **** 0.0
8810 H 91.8859 32.9259 23.8378 H 0.0 **** 0.0
8811 H 90.4977 34.1548 19.8379 H 0.0 **** 0.0
8812 H 91.8948 33.308 20.5049 H 0.0 **** 0.0
8813 H 91.9656 33.9038 18.9386 H 0.0 **** 0.0
8814 H 93.8119 38.0033 23.9876 H 0.0 **** 0.0
8815 H 94.8716 36.5733 23.4623 H 0.0 **** 0.0
8816 H 93.3308 36.3695 24.4253 H 0.0 **** 0.0
8817 H 90.9764 37.4176 17.8202 H 0.0 **** 0.0
8818 H 90.2582 35.9769 18.4517 H 0.0 **** 0.0
8819 H 91.8736 35.8851 17.6005 H 0.0 **** 0.0
8820 H 92.6082 42.1561 16.7032 H 0.0 **** 0.0
8821 H 91.5281 40.8861 17.3431 H 0.0 **** 0.0
8822 H 93.0636 40.4566 16.6174 H 0.0 **** 0.0
8823 H 93.8302 44.8586 18.8129 H 0.0 **** 0.0
8824 H 92.3504 44.1406 18.1697 H 0.0 **** 0.0
8825 H 93.9335 43.9908 17.2225 H 0.0 **** 0.0
8826 H 96.9263 44.9185 19.4155 H 0.0 **** 0.0
8827 H 97.4731 49.0333 20.7271 H 0.0 **** 0.0
8828 H 96.738 47.725 19.9508 H 0.0 **** 0.0
8829 H 98.3661 47.455 20.6329 H 0.0 **** 0.0
8830 H 99.087 48.9827 24.301 H 0.0 **** 0.0
8831 H 97.6062 49.7521 23.6317 H 0.0 **** 0.0
8832 H 98.9495 49.2723 22.588 H 0.0 **** 0.0
8833 H 97.2382 45.8167 26.8484 H 0.0 **** 0.0
8834 H 97.3405 39.8861 24.3218 H 0.0 **** 0.0
8835 H 97.822 45.6092 36.2477 H 0.0 **** 0.0
8836 H 98.6393 47.1082 36.3524 H 0.0 **** 0.0
8837 H 99.6197 45.5157 36.4833 H 0.0 **** 0.0
8838 H 98.6219 48.8299 35.0305 H 0.0 **** 0.0
8839 H 99.5791 49.4273 33.6501 H 0.0 **** 0.0
8840 H 100.299 48.5599 35.0191 H 0.0 **** 0.0
8841 C 90.2347 60.755 8.1479 C 0.0 **** 0.0
8842 C 91.1942 60.6915 7.11367 C 0.0 **** 0.0
8843 C 92.3322 61.5475 7.19005 C 0.0 **** 0.0
8844 C 92.5216 62.4526 8.27679 C 0.0 **** 0.0
8845 C 91.5265 62.5172 9.26839 C 0.0 **** 0.0
8846 C 90.455 61.6312 9.25519 C 0.0 **** 0.0
8847 C 93.651 63.4376 8.2461 C 0.0 **** 0.0
8848 C 94.7134 63.34 7.14138 C 0.0 **** 0.0
8849 C 94.6163 62.4102 6.08869 C 0.0 **** 0.0
8850 C 93.3388 61.5574 6.03612 C 0.0 **** 0.0
8851 C 95.6381 62.2483 5.10938 C 0.0 **** 0.0
8852 C 96.8044 63.0778 5.20325 C 0.0 **** 0.0
8853 C 96.9448 63.9961 6.29499 C 0.0 **** 0.0
8854 C 95.8146 64.2131 7.17509 C 0.0 **** 0.0
8855 C 95.9129 65.235 8.12651 C 0.0 **** 0.0
8856 C 96.9966 66.1285 8.19237 C 0.0 **** 0.0
8857 C 97.9732 66.0092 7.21464 C 0.0 **** 0.0
8858 C 98.0788 64.7749 6.49478 C 0.0 **** 0.0
8859 C 98.8538 67.2052 6.91124 C 0.0 **** 0.0
8860 C 98.3221 68.4849 7.59459 C 0.0 **** 0.0
8861 C 97.9237 68.2328 9.06 C 0.0 **** 0.0
8862 C 97.0847 67.0925 9.23225 C 0.0 **** 0.0
8863 C 99.1626 69.7615 7.2428 C 0.0 **** 0.0
8864 C 99.6544 69.7968 5.7532 C 0.0 **** 0.0
8865 C 98.9113 68.8657 4.91484 C 0.0 **** 0.0
8866 C 98.9907 67.3771 5.38497 C 0.0 **** 0.0
8867 C 96.4248 66.8913 10.5119 C 0.0 **** 0.0
8868 C 96.5663 67.9291 11.4809 C 0.0 **** 0.0
8869 C 97.5424 68.9351 11.3385 C 0.0 **** 0.0
8870 C 98.1672 69.1606 10.0904 C 0.0 **** 0.0
8871 C 97.9656 69.6895 12.5639 C 0.0 **** 0.0
8872 C 97.4783 69.2834 13.9109 C 0.0 **** 0.0
8873 C 96.3193 68.508 13.9803 C 0.0 **** 0.0
8874 C 95.769 67.9004 12.7223 C 0.0 **** 0.0
8875 C 95.7656 68.0997 15.3117 C 0.0 **** 0.0
8876 C 95.9327 69.2744 16.2781 C 0.0 **** 0.0
8877 C 97.356 69.7124 16.3068 C 0.0 **** 0.0
8878 C 98.1278 69.6418 15.0838 C 0.0 **** 0.0
8879 N 99.4408 69.9784 15.106 N 0.0 **** 0.0
8880 C 100.076 70.5051 16.1699 C 0.0 **** 0.0
8881 C 99.3822 70.5941 17.4006 C 0.0 **** 0.0
8882 C 98.0284 70.1136 17.4997 C 0.0 **** 0.0
8883 C 97.3179 70.0928 18.8512 C 0.0 **** 0.0
8884 C 98.1113 70.5741 20.0956 C 0.0 **** 0.0
8885 C 99.1105 71.6882 19.645 C 0.0 **** 0.0
8886 C 100.092 71.1397 18.5718 C 0.0 **** 0.0
8887 C 101.138 72.1939 18.1361 C 0.0 **** 0.0
8888 C 102.034 71.6456 17.0173 C 0.0 **** 0.0
8889 C 101.44 70.8258 16.0353 C 0.0 **** 0.0
8890 C 102.192 70.3948 14.9338 C 0.0 **** 0.0
8891 C 103.526 70.6664 14.8453 C 0.0 **** 0.0
8892 C 104.172 71.4329 15.8314 C 0.0 **** 0.0
8893 C 103.395 71.9945 16.9095 C 0.0 **** 0.0
8894 C 89.5651 61.5474 10.4722 C 0.0 **** 0.0
8895 C 88.5399 62.6773 10.6093 C 0.0 **** 0.0
8896 C 89.0087 59.9349 8.10124 C 0.0 **** 0.0
8897 C 91.6502 63.5872 10.3644 C 0.0 **** 0.0
8898 C 90.9524 59.7063 5.92755 C 0.0 **** 0.0
8899 C 95.5613 61.1708 4.00648 C 0.0 **** 0.0
8900 C 97.667 63.1531 3.97017 C 0.0 **** 0.0
8901 O 99.3003 64.2749 6.00245 O 0.0 **** 0.0
8902 C 99.1999 68.9468 3.40867 C 0.0 **** 0.0
8903 C 101.162 69.5167 5.76179 C 0.0 **** 0.0
8904 O 98.9235 70.3075 9.83322 O 0.0 **** 0.0
8905 O 95.8796 65.6549 10.8359 O 0.0 **** 0.0
8906 O 94.6187 67.4207 12.7395 O 0.0 **** 0.0
8907 O 98.7613 70.5928 12.4946 O 0.0 **** 0.0
8908 C 104.081 72.8786 17.8559 C 0.0 **** 0.0
8909 C 105.555 71.8688 15.562 C 0.0 **** 0.0
8910 H 93.1577 64.4133 8.08069 H 0.0 **** 0.0
8911 H 94.1346 63.31 9.25186 H 0.0 **** 0.0
8912 H 93.6474 60.4947 5.98723 H 0.0 **** 0.0
8913 H 92.8704 61.8567 5.08048 H 0.0 **** 0.0
8914 H 95.0468 65.4828 8.74222 H 0.0 **** 0.0
8915 H 98.5363 70.6255 7.44741 H 0.0 **** 0.0
8916 H 100.066 69.7997 7.91364 H 0.0 **** 0.0
8917 H 99.463 70.8216 5.37859 H 0.0 **** 0.0
8918 H 97.8546 69.1611 5.00705 H 0.0 **** 0.0
8919 H 99.962 67.0172 5.1297 H 0.0 **** 0.0
8920 H 98.2825 66.8408 4.77403 H 0.0 **** 0.0
8921 H 94.6939 67.9501 15.2336 H 0.0 **** 0.0
8922 H 96.3413 67.2565 15.7025 H 0.0 **** 0.0
8923 H 95.4987 68.9529 17.2701 H 0.0 **** 0.0
8924 H 95.3153 70.1303 15.9048 H 0.0 **** 0.0
8925 H 96.3562 70.6823 18.7459 H 0.0 **** 0.0
8926 H 96.9957 69.0269 19.027 H 0.0 **** 0.0
8927 H 98.5805 69.724 20.5076 H 0.0 **** 0.0
8928 H 97.4102 71.0404 20.8334 H 0.0 **** 0.0
8929 H 99.6396 72.0419 20.5558 H 0.0 **** 0.0
8930 H 98.5761 72.5576 19.251 H 0.0 **** 0.0
8931 H 100.669 70.2979 19.0062 H 0.0 **** 0.0
8932 H 100.547 73.0373 17.6483 H 0.0 **** 0.0
8933 H 101.671 72.6135 19.0546 H 0.0 **** 0.0
8934 H 101.682 69.855 14.1275 H 0.0 **** 0.0
8935 H 104.01 70.4079 13.8877 H 0.0 **** 0.0
8936 H 90.1645 61.5192 11.4154 H 0.0 **** 0.0
8937 H 89.0209 60.561 10.5272 H 0.0 **** 0.0
8938 H 87.6671 62.488 9.99442 H 0.0 **** 0.0
8939 H 88.8748 63.6302 10.1762 H 0.0 **** 0.0
8940 H 88.2715 62.7489 11.6933 H 0.0 **** 0.0
8941 H 88.6895 59.8567 7.06198 H 0.0 **** 0.0
8942 H 88.2016 60.3918 8.68244 H 0.0 **** 0.0
8943 H 89.2393 58.9539 8.59547 H 0.0 **** 0.0
8944 H 90.8342 63.7145 11.0548 H 0.0 **** 0.0
8945 H 91.7709 64.558 9.86458 H 0.0 **** 0.0
8946 H 92.5217 63.3807 10.9854 H 0.0 **** 0.0
8947 H 91.7494 59.7821 5.16112 H 0.0 **** 0.0
8948 H 90.0069 59.8924 5.37824 H 0.0 **** 0.0
8949 H 90.9804 58.6912 6.31431 H 0.0 **** 0.0
8950 H 96.5446 60.7679 3.71089 H 0.0 **** 0.0
8951 H 95.0042 61.6903 3.17445 H 0.0 **** 0.0
8952 H 94.9865 60.2638 4.42818 H 0.0 **** 0.0
8953 H 97.9914 64.201 3.83606 H 0.0 **** 0.0
8954 H 97.1929 62.9862 2.98783 H 0.0 **** 0.0
8955 H 98.5929 62.5193 4.08532 H 0.0 **** 0.0
8956 H 100.099 64.8587 6.31418 H 0.0 **** 0.0
8957 H 99.0157 69.9341 2.96081 H 0.0 **** 0.0
8958 H 98.5409 68.2426 2.81719 H 0.0 **** 0.0
8959 H 100.281 68.7036 3.20754 H 0.0 **** 0.0
8960 H 101.676 70.3095 6.27659 H 0.0 **** 0.0
8961 H 101.593 69.4651 4.74607 H 0.0 **** 0.0
8962 H 101.477 68.5832 6.26983 H 0.0 **** 0.0
8963 H 98.508 71.1355 10.2831 H 0.0 **** 0.0
8964 H 95.7805 65.4587 11.838 H 0.0 **** 0.0
8965 H 103.678 73.8987 17.7239 H 0.0 **** 0.0
8966 H 105.145 72.76 17.8027 H 0.0 **** 0.0
8967 H 103.874 72.5414 18.8803 H 0.0 **** 0.0
8968 H 105.586 72.9539 15.589 H 0.0 **** 0.0
8969 H 105.937 71.494 14.6013 H 0.0 **** 0.0
8970 H 106.224 71.5052 16.3604 H 0.0 **** 0.0
8971 C 105.721 109.247 84.5885 C 0.0 **** 0.0
8972 C 104.586 110.146 84.6071 C 0.0 **** 0.0
8973 C 103.33 109.708 84.1593 C 0.0 **** 0.0
8974 C 103.201 108.473 83.5421 C 0.0 **** 0.0
8975 C 104.329 107.631 83.3703 C 0.0 **** 0.0
8976 C 105.596 107.993 83.9178 C 0.0 **** 0.0
8977 C 101.786 108.058 83.1603 C 0.0 **** 0.0
8978 C 100.624 108.803 83.784 C 0.0 **** 0.0
8979 C 100.799 110.097 84.2241 C 0.0 **** 0.0
8980 C 102.168 110.652 84.3097 C 0.0 **** 0.0
8981 C 99.6838 110.857 84.6894 C 0.0 **** 0.0
8982 C 98.4826 110.188 85.0439 C 0.0 **** 0.0
8983 C 98.3394 108.821 84.6251 C 0.0 **** 0.0
8984 C 99.3342 108.251 83.7965 C 0.0 **** 0.0
8985 C 99.1357 107.04 83.1854 C 0.0 **** 0.0
8986 C 98.1042 106.209 83.5919 C 0.0 **** 0.0
8987 C 97.0211 106.771 84.3466 C 0.0 **** 0.0
8988 C 97.2054 108.006 84.9619 C 0.0 **** 0.0
8989 C 95.6294 106.106 84.3279 C 0.0 **** 0.0
8990 C 95.6143 104.766 83.6666 C 0.0 **** 0.0
8991 C 96.9452 104.085 83.4707 C 0.0 **** 0.0
8992 C 98.1546 104.809 83.37 C 0.0 **** 0.0
8993 C 94.5869 104.546 82.5122 C 0.0 **** 0.0
8994 C 94.4352 105.773 81.594 C 0.0 **** 0.0
8995 C 94.4783 107.072 82.2591 C 0.0 **** 0.0
8996 C 94.4859 106.996 83.8316 C 0.0 **** 0.0
8997 C 99.3867 104.109 83.2738 C 0.0 **** 0.0
8998 C 99.3571 102.733 82.7893 C 0.0 **** 0.0
8999 C 98.1173 102.104 82.6255 C 0.0 **** 0.0
9000 C 96.9669 102.713 83.1823 C 0.0 **** 0.0
9001 C 98.0314 100.816 81.9255 C 0.0 **** 0.0
9002 C 99.286 100.013 81.7098 C 0.0 **** 0.0
9003 C 100.529 100.569 82.0855 C 0.0 **** 0.0
9004 C 100.597 101.997 82.4482 C 0.0 **** 0.0
9005 C 101.78 99.7837 81.9479 C 0.0 **** 0.0
9006 C 101.711 98.8982 80.7035 C 0.0 **** 0.0
9007 C 100.44 98.1052 80.6797 C 0.0 **** 0.0
9008 C 99.2739 98.7279 81.1367 C 0.0 **** 0.0
9009 N 98.0869 98.0672 80.9505 N 0.0 **** 0.0
9010 C 97.9934 96.8554 80.3278 C 0.0 **** 0.0
9011 C 99.1442 96.2855 79.776 C 0.0 **** 0.0
9012 C 100.389 96.8773 79.997 C 0.0 **** 0.0
9013 C 101.627 96.2672 79.441 C 0.0 **** 0.0
9014 C 101.458 94.9229 78.7478 C 0.0 **** 0.0
9015 C 100.098 94.7505 78.0456 C 0.0 **** 0.0
9016 C 98.9954 94.9593 79.0556 C 0.0 **** 0.0
9017 C 97.6482 94.8625 78.3221 C 0.0 **** 0.0
9018 C 96.568 95.0851 79.3305 C 0.0 **** 0.0
9019 C 96.7947 96.1243 80.2985 C 0.0 **** 0.0
9020 C 95.759 96.5292 81.1099 C 0.0 **** 0.0
9021 C 94.5437 95.9181 81.0672 C 0.0 **** 0.0
9022 C 94.3159 94.8251 80.1872 C 0.0 **** 0.0
9023 C 95.3201 94.3917 79.3087 C 0.0 **** 0.0
9024 C 106.789 107.054 83.8149 C 0.0 **** 0.0
9025 C 107.712 107.512 82.6867 C 0.0 **** 0.0
9026 C 107.025 109.79 85.2073 C 0.0 **** 0.0
9027 C 104.147 106.438 82.4208 C 0.0 **** 0.0
9028 C 104.669 111.583 85.1074 C 0.0 **** 0.0
9029 C 99.8379 112.322 84.9646 C 0.0 **** 0.0
9030 C 97.4369 110.865 85.8499 C 0.0 **** 0.0
9031 O 96.4376 108.394 86.0903 O 0.0 **** 0.0
9032 C 93.4499 108.121 81.8022 C 0.0 **** 0.0
9033 C 93.2744 105.476 80.6693 C 0.0 **** 0.0
9034 O 95.8436 101.943 83.5151 O 0.0 **** 0.0
9035 O 100.519 104.777 83.7145 O 0.0 **** 0.0
9036 O 101.675 102.602 82.5734 O 0.0 **** 0.0
9037 O 96.9628 100.419 81.4333 O 0.0 **** 0.0
9038 C 94.9215 93.3448 78.2944 C 0.0 **** 0.0
9039 C 92.9434 94.1919 80.2062 C 0.0 **** 0.0
9040 H 101.738 108.135 82.0485 H 0.0 **** 0.0
9041 H 101.793 106.988 83.4797 H 0.0 **** 0.0
9042 H 102.146 111.066 85.3748 H 0.0 **** 0.0
9043 H 102.273 111.449 83.5629 H 0.0 **** 0.0
9044 H 99.8173 106.673 82.4275 H 0.0 **** 0.0
9045 H 94.8743 103.699 81.8663 H 0.0 **** 0.0
9046 H 93.6771 104.198 82.9916 H 0.0 **** 0.0
9047 H 95.3437 105.663 80.9836 H 0.0 **** 0.0
9048 H 95.4621 107.511 82.0413 H 0.0 **** 0.0
9049 H 93.4885 106.677 84.203 H 0.0 **** 0.0
9050 H 94.6267 108.01 84.212 H 0.0 **** 0.0
9051 H 102.651 100.44 81.7938 H 0.0 **** 0.0
9052 H 101.922 99.2211 82.9006 H 0.0 **** 0.0
9053 H 102.579 98.2648 80.7192 H 0.0 **** 0.0
9054 H 101.793 99.4898 79.768 H 0.0 **** 0.0
9055 H 102.061 96.9843 78.7269 H 0.0 **** 0.0
9056 H 102.448 96.1637 80.2107 H 0.0 **** 0.0
9057 H 101.578 94.1261 79.4934 H 0.0 **** 0.0
9058 H 102.246 94.8223 77.9688 H 0.0 **** 0.0
9059 H 100.045 93.7506 77.6191 H 0.0 **** 0.0
9060 H 99.9801 95.5379 77.202 H 0.0 **** 0.0
9061 H 99.0094 94.1328 79.8065 H 0.0 **** 0.0
9062 H 97.6553 95.6867 77.5773 H 0.0 **** 0.0
9063 H 97.542 93.8912 77.8779 H 0.0 **** 0.0
9064 H 95.8736 97.3563 81.8139 H 0.0 **** 0.0
9065 H 93.7989 96.2331 81.7886 H 0.0 **** 0.0
9066 H 106.492 106.016 83.6074 H 0.0 **** 0.0
9067 H 107.349 107.019 84.7542 H 0.0 **** 0.0
9068 H 107.131 107.914 81.8723 H 0.0 **** 0.0
9069 H 108.377 106.678 82.2898 H 0.0 **** 0.0
9070 H 108.29 108.386 83.0803 H 0.0 **** 0.0
9071 H 107.343 110.711 84.7068 H 0.0 **** 0.0
9072 H 107.891 109.126 85.0995 H 0.0 **** 0.0
9073 H 106.834 109.907 86.2802 H 0.0 **** 0.0
9074 H 103.601 106.765 81.5493 H 0.0 **** 0.0
9075 H 103.549 105.668 82.9194 H 0.0 **** 0.0
9076 H 105.136 106.076 81.9863 H 0.0 **** 0.0
9077 H 104.274 111.646 86.1236 H 0.0 **** 0.0
9078 H 104.142 112.329 84.5099 H 0.0 **** 0.0
9079 H 105.703 111.951 85.1509 H 0.0 **** 0.0
9080 H 99.7177 112.483 86.0455 H 0.0 **** 0.0
9081 H 99.0886 112.877 84.3938 H 0.0 **** 0.0
9082 H 100.808 112.787 84.751 H 0.0 **** 0.0
9083 H 96.3838 110.723 85.5241 H 0.0 **** 0.0
9084 H 97.5528 111.943 85.8273 H 0.0 **** 0.0
9085 H 97.5902 110.624 86.9551 H 0.0 **** 0.0
9086 H 95.8678 107.608 86.4324 H 0.0 **** 0.0
9087 H 93.4251 108.364 80.7318 H 0.0 **** 0.0
9088 H 93.5825 109.086 82.3665 H 0.0 **** 0.0
9089 H 92.4439 107.769 82.0725 H 0.0 **** 0.0
9090 H 93.4461 104.512 80.1346 H 0.0 **** 0.0
9091 H 93.1929 106.256 79.9219 H 0.0 **** 0.0
9092 H 92.2843 105.425 81.2179 H 0.0 **** 0.0
9093 H 95.9913 100.941 83.4213 H 0.0 **** 0.0
9094 H 101.183 104.212 84.1471 H 0.0 **** 0.0
9095 H 94.0071 93.6887 77.7467 H 0.0 **** 0.0
9096 H 94.6415 92.3886 78.8716 H 0.0 **** 0.0
9097 H 95.6808 92.9941 77.5205 H 0.0 **** 0.0
9098 H 93.0993 93.282 80.7335 H 0.0 **** 0.0
9099 H 92.4992 94.0454 79.2203 H 0.0 **** 0.0
9100 H 92.2202 94.8268 80.8364 H 0.0 **** 0.0
9101 C 47.2024 59.3073 83.6704 C 0.0 **** 0.0
9102 C 47.0272 60.4916 82.9389 C 0.0 **** 0.0
9103 C 46.9171 61.7232 83.5796 C 0.0 **** 0.0
9104 C 47.1183 61.8642 84.9759 C 0.0 **** 0.0
9105 C 47.4813 60.7468 85.7295 C 0.0 **** 0.0
9106 C 47.453 59.4205 85.0772 C 0.0 **** 0.0
9107 C 46.9167 63.3028 85.6399 C 0.0 **** 0.0
9108 C 46.5827 64.4757 84.7336 C 0.0 **** 0.0
9109 C 46.4917 64.3014 83.3536 C 0.0 **** 0.0
9110 C 46.6382 62.9527 82.7196 C 0.0 **** 0.0
9111 C 46.4185 65.4307 82.4647 C 0.0 **** 0.0
9112 C 46.4998 66.7151 83.0033 C 0.0 **** 0.0
9113 C 46.6955 66.9267 84.3795 C 0.0 **** 0.0
9114 C 46.5533 65.8207 85.2536 C 0.0 **** 0.0
9115 C 46.4163 66.0874 86.638 C 0.0 **** 0.0
9116 C 46.4868 67.3861 87.1745 C 0.0 **** 0.0
9117 C 46.6311 68.4883 86.2639 C 0.0 **** 0.0
9118 C 47.0073 68.2203 84.8972 C 0.0 **** 0.0
9119 C 46.4113 69.9369 86.7606 C 0.0 **** 0.0
9120 C 45.341 69.8825 87.8491 C 0.0 **** 0.0
9121 C 45.6712 68.8666 88.9185 C 0.0 **** 0.0
9122 C 46.295 67.6418 88.558 C 0.0 **** 0.0
9123 C 43.9013 69.5378 87.3028 C 0.0 **** 0.0
9124 C 43.4926 70.4318 86.1087 C 0.0 **** 0.0
9125 C 44.5356 70.5318 85.07 C 0.0 **** 0.0
9126 C 45.9255 70.9166 85.6502 C 0.0 **** 0.0
9127 C 46.6881 66.7497 89.6246 C 0.0 **** 0.0
9128 C 46.6018 67.1916 90.9894 C 0.0 **** 0.0
9129 C 45.6992 68.2654 91.2897 C 0.0 **** 0.0
9130 C 45.2616 69.1267 90.2176 C 0.0 **** 0.0
9131 C 45.3739 68.5119 92.7333 C 0.0 **** 0.0
9132 C 46.1502 67.8884 93.8312 C 0.0 **** 0.0
9133 C 47.1888 66.9983 93.505 C 0.0 **** 0.0
9134 C 47.5025 66.6768 92.0985 C 0.0 **** 0.0
9135 C 48.0164 66.2718 94.608 C 0.0 **** 0.0
9136 C 47.3331 66.2805 95.978 C 0.0 **** 0.0
9137 C 46.4432 67.4542 96.2633 C 0.0 **** 0.0
9138 C 45.839 68.1633 95.2061 C 0.0 **** 0.0
9139 N 44.9096 69.1096 95.5135 N 0.0 **** 0.0
9140 C 44.5223 69.454 96.7693 C 0.0 **** 0.0
9141 C 45.0664 68.7583 97.8053 C 0.0 **** 0.0
9142 C 46.0855 67.8365 97.5945 C 0.0 **** 0.0
9143 C 46.6997 67.163 98.7812 C 0.0 **** 0.0
9144 C 45.7953 67.143 100.007 C 0.0 **** 0.0
9145 C 45.2943 68.5229 100.374 C 0.0 **** 0.0
9146 C 44.7582 69.315 99.2045 C 0.0 **** 0.0
9147 C 43.2971 69.7736 99.4229 C 0.0 **** 0.0
9148 C 42.7722 70.5449 98.1784 C 0.0 **** 0.0
9149 C 43.4783 70.4204 96.9674 C 0.0 **** 0.0
9150 C 43.1271 71.2255 95.9194 C 0.0 **** 0.0
9151 C 42.0044 71.9861 95.9543 C 0.0 **** 0.0
9152 C 41.1786 72.0431 97.0918 C 0.0 **** 0.0
9153 C 41.5742 71.3021 98.266 C 0.0 **** 0.0
9154 C 47.586 58.1583 85.9417 C 0.0 **** 0.0
9155 C 46.2629 57.7551 86.4777 C 0.0 **** 0.0
9156 C 47.0733 58.004 82.9356 C 0.0 **** 0.0
9157 C 47.7999 60.8361 87.1784 C 0.0 **** 0.0
9158 C 46.8545 60.3489 81.4252 C 0.0 **** 0.0
9159 C 46.0558 65.2589 81.0215 C 0.0 **** 0.0
9160 C 46.0526 67.9562 82.2586 C 0.0 **** 0.0
9161 O 47.8544 69.0945 84.2242 O 0.0 **** 0.0
9162 C 44.1565 71.5391 83.922 C 0.0 **** 0.0
9163 C 43.1379 71.8375 86.6999 C 0.0 **** 0.0
9164 O 44.3974 70.1797 90.4727 O 0.0 **** 0.0
9165 O 47.3079 65.5028 89.2933 O 0.0 **** 0.0
9166 O 48.4943 66.0269 91.826 O 0.0 **** 0.0
9167 O 44.5086 69.3334 92.9588 O 0.0 **** 0.0
9168 C 40.8032 71.4213 99.5727 C 0.0 **** 0.0
9169 C 39.9638 72.8907 97.0762 C 0.0 **** 0.0
9170 H 46.1048 63.2584 86.3798 H 0.0 **** 0.0
9171 H 47.8435 63.4682 86.2192 H 0.0 **** 0.0
9172 H 47.4775 62.9788 81.9687 H 0.0 **** 0.0
9173 H 45.7135 62.7468 82.2022 H 0.0 **** 0.0
9174 H 46.1629 65.2814 87.2405 H 0.0 **** 0.0
9175 H 43.8017 68.4628 86.983 H 0.0 **** 0.0
9176 H 43.0984 69.523 88.1357 H 0.0 **** 0.0
9177 H 42.5838 69.975 85.6188 H 0.0 **** 0.0
9178 H 44.6303 69.5035 84.6305 H 0.0 **** 0.0
9179 H 45.9197 71.8969 86.1999 H 0.0 **** 0.0
9180 H 46.6339 71.055 84.8392 H 0.0 **** 0.0
9181 H 48.2214 65.2593 94.3636 H 0.0 **** 0.0
9182 H 49.0011 66.7647 94.6511 H 0.0 **** 0.0
9183 H 48.1409 66.1643 96.7362 H 0.0 **** 0.0
9184 H 46.648 65.4462 95.9999 H 0.0 **** 0.0
9185 H 46.8359 66.0594 98.603 H 0.0 **** 0.0
9186 H 47.6152 67.6881 99.0999 H 0.0 **** 0.0
9187 H 46.3145 66.716 100.876 H 0.0 **** 0.0
9188 H 44.9046 66.4822 99.7998 H 0.0 **** 0.0
9189 H 46.1472 69.0117 100.894 H 0.0 **** 0.0
9190 H 44.5348 68.3916 101.11 H 0.0 **** 0.0
9191 H 45.3092 70.2508 99.1889 H 0.0 **** 0.0
9192 H 42.6469 68.9216 99.6447 H 0.0 **** 0.0
9193 H 43.3435 70.4649 100.314 H 0.0 **** 0.0
9194 H 43.6914 71.1976 94.9918 H 0.0 **** 0.0
9195 H 41.8221 72.6064 95.1018 H 0.0 **** 0.0
9196 H 48.2767 58.2325 86.8128 H 0.0 **** 0.0
9197 H 48.1132 57.3312 85.395 H 0.0 **** 0.0
9198 H 45.5673 57.3263 85.7271 H 0.0 **** 0.0
9199 H 45.866 58.6643 86.9275 H 0.0 **** 0.0
9200 H 46.4403 57.0698 87.3299 H 0.0 **** 0.0
9201 H 46.1744 58.0579 82.3627 H 0.0 **** 0.0
9202 H 46.9356 57.1085 83.5955 H 0.0 **** 0.0
9203 H 47.9668 57.8794 82.2347 H 0.0 **** 0.0
9204 H 46.8986 60.627 87.805 H 0.0 **** 0.0
9205 H 48.1694 61.8448 87.4953 H 0.0 **** 0.0
9206 H 48.6393 60.2342 87.5526 H 0.0 **** 0.0
9207 H 46.8879 61.2981 80.8548 H 0.0 **** 0.0
9208 H 45.8561 59.9246 81.1401 H 0.0 **** 0.0
9209 H 47.6564 59.7614 80.9919 H 0.0 **** 0.0
9210 H 46.6154 66.0019 80.4429 H 0.0 **** 0.0
9211 H 44.9266 65.3811 80.8741 H 0.0 **** 0.0
9212 H 46.2992 64.3293 80.5748 H 0.0 **** 0.0
9213 H 45.5384 68.732 82.8318 H 0.0 **** 0.0
9214 H 45.3557 67.7806 81.4072 H 0.0 **** 0.0
9215 H 46.9811 68.4452 81.8683 H 0.0 **** 0.0
9216 H 48.2996 69.7784 84.8515 H 0.0 **** 0.0
9217 H 43.1417 71.3058 83.5009 H 0.0 **** 0.0
9218 H 44.8982 71.4322 83.0691 H 0.0 **** 0.0
9219 H 44.1899 72.5831 84.2404 H 0.0 **** 0.0
9220 H 42.3798 71.7488 87.5191 H 0.0 **** 0.0
9221 H 42.5705 72.4637 85.9722 H 0.0 **** 0.0
9222 H 44.0222 72.3593 87.0433 H 0.0 **** 0.0
9223 H 44.8851 70.8178 91.1354 H 0.0 **** 0.0
9224 H 47.3321 64.7985 90.0272 H 0.0 **** 0.0
9225 H 40.5782 70.3794 99.9384 H 0.0 **** 0.0
9226 H 39.7911 71.8983 99.4927 H 0.0 **** 0.0
9227 H 41.4687 71.9552 100.277 H 0.0 **** 0.0
9228 H 39.0054 72.3146 97.3528 H 0.0 **** 0.0
9229 H 39.774 73.2011 96.0188 H 0.0 **** 0.0
9230 H 40.0192 73.7204 97.821 H 0.0 **** 0.0
9231 C 55.6112 40.0563 8.19079 C 0.0 **** 0.0
9232 C 55.6442 40.9121 9.32818 C 0.0 **** 0.0
9233 C 54.3648 41.3253 9.86074 C 0.0 **** 0.0
9234 C 53.188 41.1642 9.13218 C 0.0 **** 0.0
9235 C 53.2677 40.6093 7.79874 C 0.0 **** 0.0
9236 C 54.4707 39.999 7.37391 C 0.0 **** 0.0
9237 C 51.8872 41.6723 9.6882 C 0.0 **** 0.0
9238 C 51.8533 42.0185 11.1975 C 0.0 **** 0.0
9239 C 53.0278 41.8695 11.9703 C 0.0 **** 0.0
9240 C 54.3544 41.8711 11.2678 C 0.0 **** 0.0
9241 C 52.9495 41.9684 13.3996 C 0.0 **** 0.0
9242 C 51.6995 42.2694 14.0183 C 0.0 **** 0.0
9243 C 50.6547 42.7903 13.2021 C 0.0 **** 0.0
9244 C 50.7274 42.5944 11.827 C 0.0 **** 0.0
9245 C 49.6902 43.0682 11.0056 C 0.0 **** 0.0
9246 C 48.8171 44.0872 11.4555 C 0.0 **** 0.0
9247 C 48.8751 44.4149 12.8139 C 0.0 **** 0.0
9248 C 49.5998 43.5747 13.7198 C 0.0 **** 0.0
9249 C 47.9807 45.5205 13.398 C 0.0 **** 0.0
9250 C 46.8973 46.0247 12.4572 C 0.0 **** 0.0
9251 C 46.78 45.3983 11.1224 C 0.0 **** 0.0
9252 C 47.8291 44.6501 10.5856 C 0.0 **** 0.0
9253 C 46.8203 47.5744 12.4077 C 0.0 **** 0.0
9254 C 48.2308 48.1991 12.4403 C 0.0 **** 0.0
9255 C 48.8063 48.0145 13.8084 C 0.0 **** 0.0
9256 C 48.7148 46.5335 14.3092 C 0.0 **** 0.0
9257 C 47.9064 44.4777 9.18248 C 0.0 **** 0.0
9258 C 46.7931 44.7074 8.34675 C 0.0 **** 0.0
9259 C 45.5887 45.2176 8.97162 C 0.0 **** 0.0
9260 C 45.6123 45.6061 10.3736 C 0.0 **** 0.0
9261 C 44.3868 45.3491 8.17936 C 0.0 **** 0.0
9262 C 44.3089 44.9 6.75415 C 0.0 **** 0.0
9263 C 45.5061 44.4671 6.13486 C 0.0 **** 0.0
9264 C 46.711 44.1943 6.977 C 0.0 **** 0.0
9265 C 45.4728 44.1177 4.67131 C 0.0 **** 0.0
9266 C 44.2588 43.1863 4.48043 C 0.0 **** 0.0
9267 C 42.9958 43.7751 5.05789 C 0.0 **** 0.0
9268 C 43.0674 44.6101 6.16436 C 0.0 **** 0.0
9269 N 41.9128 45.0647 6.73375 N 0.0 **** 0.0
9270 C 40.6885 44.9006 6.20801 C 0.0 **** 0.0
9271 C 40.5645 44.1307 5.03872 C 0.0 **** 0.0
9272 C 41.7179 43.5046 4.47862 C 0.0 **** 0.0
9273 C 41.6037 42.7798 3.14703 C 0.0 **** 0.0
9274 C 40.1994 42.3353 2.80047 C 0.0 **** 0.0
9275 C 39.1614 43.4373 3.0127 C 0.0 **** 0.0
9276 C 39.1663 43.8478 4.51146 C 0.0 **** 0.0
9277 C 38.2599 45.1191 4.69681 C 0.0 **** 0.0
9278 C 38.3557 45.7035 6.07206 C 0.0 **** 0.0
9279 C 39.5342 45.457 6.8078 C 0.0 **** 0.0
9280 C 39.6071 45.9316 8.12196 C 0.0 **** 0.0
9281 C 38.6699 46.8398 8.5996 C 0.0 **** 0.0
9282 C 37.6251 47.2839 7.79017 C 0.0 **** 0.0
9283 C 37.4295 46.6915 6.50693 C 0.0 **** 0.0
9284 C 54.5669 39.3097 6.00281 C 0.0 **** 0.0
9285 C 54.8398 40.3757 4.92338 C 0.0 **** 0.0
9286 C 56.8924 39.3728 7.75334 C 0.0 **** 0.0
9287 C 52.0248 40.6181 6.89517 C 0.0 **** 0.0
9288 C 56.9272 41.1985 10.0973 C 0.0 **** 0.0
9289 C 54.2339 41.7797 14.2351 C 0.0 **** 0.0
9290 C 51.4807 42.0222 15.5185 C 0.0 **** 0.0
9291 O 49.3577 43.6314 15.0714 O 0.0 **** 0.0
9292 C 48.2912 49.0163 14.8805 C 0.0 **** 0.0
9293 C 48.194 49.6672 12.0147 C 0.0 **** 0.0
9294 O 44.5561 46.2989 10.9538 O 0.0 **** 0.0
9295 O 49.1344 44.2426 8.58523 O 0.0 **** 0.0
9296 O 47.5123 43.4067 6.52239 O 0.0 **** 0.0
9297 O 43.3852 45.7518 8.72135 O 0.0 **** 0.0
9298 C 36.3579 47.1941 5.53921 C 0.0 **** 0.0
9299 C 36.7658 48.4264 8.30693 C 0.0 **** 0.0
9300 H 51.6674 42.6159 9.20184 H 0.0 **** 0.0
9301 H 51.0542 40.963 9.38812 H 0.0 **** 0.0
9302 H 55.0814 41.2505 11.8397 H 0.0 **** 0.0
9303 H 54.767 42.8464 11.2282 H 0.0 **** 0.0
9304 H 49.4903 42.6157 10.0584 H 0.0 **** 0.0
9305 H 46.3189 47.8989 11.492 H 0.0 **** 0.0
9306 H 46.2399 47.971 13.2511 H 0.0 **** 0.0
9307 H 48.8579 47.7159 11.714 H 0.0 **** 0.0
9308 H 49.8667 48.2815 13.7608 H 0.0 **** 0.0
9309 H 48.1992 46.3884 15.3146 H 0.0 **** 0.0
9310 H 49.7526 46.166 14.5454 H 0.0 **** 0.0
9311 H 45.305 45.0575 4.0479 H 0.0 **** 0.0
9312 H 46.3712 43.5929 4.292 H 0.0 **** 0.0
9313 H 44.5131 42.1805 4.91905 H 0.0 **** 0.0
9314 H 44.1881 43.0106 3.40279 H 0.0 **** 0.0
9315 H 41.9422 43.4351 2.29142 H 0.0 **** 0.0
9316 H 42.176 41.8328 3.11033 H 0.0 **** 0.0
9317 H 39.9722 41.4375 3.40796 H 0.0 **** 0.0
9318 H 40.1667 42.2034 1.73283 H 0.0 **** 0.0
9319 H 38.2143 42.989 2.68805 H 0.0 **** 0.0
9320 H 39.3233 44.2965 2.35859 H 0.0 **** 0.0
9321 H 38.7348 42.9901 5.04008 H 0.0 **** 0.0
9322 H 38.5162 45.8831 3.91557 H 0.0 **** 0.0
9323 H 37.2256 44.7969 4.46448 H 0.0 **** 0.0
9324 H 40.4011 45.6796 8.80636 H 0.0 **** 0.0
9325 H 38.8674 47.2365 9.61347 H 0.0 **** 0.0
9326 H 53.6548 38.7528 5.80216 H 0.0 **** 0.0
9327 H 55.3533 38.5221 5.93122 H 0.0 **** 0.0
9328 H 55.883 40.7445 5.04615 H 0.0 **** 0.0
9329 H 54.1421 41.2218 4.95806 H 0.0 **** 0.0
9330 H 54.6841 39.8953 3.91599 H 0.0 **** 0.0
9331 H 57.7139 39.4236 8.47822 H 0.0 **** 0.0
9332 H 57.242 39.7437 6.76711 H 0.0 **** 0.0
9333 H 56.6574 38.293 7.6946 H 0.0 **** 0.0
9334 H 51.6575 41.6503 6.88422 H 0.0 **** 0.0
9335 H 51.1814 39.936 7.23523 H 0.0 **** 0.0
9336 H 52.2243 40.3869 5.8389 H 0.0 **** 0.0
9337 H 56.7946 42.0434 10.7935 H 0.0 **** 0.0
9338 H 57.7047 41.4869 9.3083 H 0.0 **** 0.0
9339 H 57.1308 40.3037 10.7493 H 0.0 **** 0.0
9340 H 54.5533 40.7679 14.1151 H 0.0 **** 0.0
9341 H 54.0439 41.955 15.2856 H 0.0 **** 0.0
9342 H 54.9882 42.4758 13.8536 H 0.0 **** 0.0
9343 H 51.6304 42.9664 16.1156 H 0.0 **** 0.0
9344 H 52.1524 41.258 15.9453 H 0.0 **** 0.0
9345 H 50.4733 41.6491 15.755 H 0.0 **** 0.0
9346 H 48.3845 43.858 15.3664 H 0.0 **** 0.0
9347 H 48.5189 50.0844 14.6626 H 0.0 **** 0.0
9348 H 48.7937 48.806 15.8305 H 0.0 **** 0.0
9349 H 47.1991 48.8377 15.1144 H 0.0 **** 0.0
9350 H 47.8548 49.675 10.9437 H 0.0 **** 0.0
9351 H 49.2072 50.0803 12.0459 H 0.0 **** 0.0
9352 H 47.3954 50.2225 12.614 H 0.0 **** 0.0
9353 H 44.214 47.077 10.4054 H 0.0 **** 0.0
9354 H 49.2231 44.6398 7.6477 H 0.0 **** 0.0
9355 H 36.8409 47.6225 4.63214 H 0.0 **** 0.0
9356 H 35.6892 47.9327 5.98383 H 0.0 **** 0.0
9357 H 35.7303 46.2992 5.25589 H 0.0 **** 0.0
9358 H 36.7884 49.2511 7.56421 H 0.0 **** 0.0
9359 H 37.1923 48.8045 9.28888 H 0.0 **** 0.0
9360 H 35.774 48.0636 8.46151 H 0.0 **** 0.0
9361 C 42.8078 19.6915 69.7695 C 0.0 **** 0.0
9362 C 42.3232 21.0127 69.717 C 0.0 **** 0.0
9363 C 40.9244 21.316 69.8137 C 0.0 **** 0.0
9364 C 39.996 20.2673 69.9602 C 0.0 **** 0.0
9365 C 40.4622 18.946 69.9353 C 0.0 **** 0.0
9366 C 41.8634 18.6394 69.9599 C 0.0 **** 0.0
9367 C 38.5233 20.6029 70.2779 C 0.0 **** 0.0
9368 C 38.2065 22.0493 70.695 C 0.0 **** 0.0
9369 C 39.1655 23.0704 70.5436 C 0.0 **** 0.0
9370 C 40.3851 22.7281 69.7387 C 0.0 **** 0.0
9371 C 38.847 24.4371 70.7653 C 0.0 **** 0.0
9372 C 37.5521 24.778 71.2449 C 0.0 **** 0.0
9373 C 36.6422 23.718 71.582 C 0.0 **** 0.0
9374 C 36.9313 22.3586 71.2626 C 0.0 **** 0.0
9375 C 35.9562 21.3821 71.4891 C 0.0 **** 0.0
9376 C 34.7681 21.6318 72.201 C 0.0 **** 0.0
9377 C 34.4514 22.9393 72.5503 C 0.0 **** 0.0
9378 C 35.4784 23.9523 72.4144 C 0.0 **** 0.0
9379 C 33.0691 23.2433 73.2251 C 0.0 **** 0.0
9380 C 31.9879 22.1395 72.9554 C 0.0 **** 0.0
9381 C 32.5849 20.7559 72.9403 C 0.0 **** 0.0
9382 C 33.8941 20.532 72.4828 C 0.0 **** 0.0
9383 C 31.009 22.4904 71.7457 C 0.0 **** 0.0
9384 C 30.4793 23.9706 71.7286 C 0.0 **** 0.0
9385 C 30.9838 24.7153 72.9215 C 0.0 **** 0.0
9386 C 32.5283 24.666 72.9574 C 0.0 **** 0.0
9387 C 34.3899 19.1853 72.6026 C 0.0 **** 0.0
9388 C 33.4906 18.1134 72.7566 C 0.0 **** 0.0
9389 C 32.183 18.3663 73.2041 C 0.0 **** 0.0
9390 C 31.8099 19.6949 73.477 C 0.0 **** 0.0
9391 C 31.2381 17.248 73.4729 C 0.0 **** 0.0
9392 C 31.6695 15.8472 73.3102 C 0.0 **** 0.0
9393 C 32.938 15.6231 72.7795 C 0.0 **** 0.0
9394 C 33.8618 16.7035 72.4567 C 0.0 **** 0.0
9395 C 33.3187 14.2286 72.4918 C 0.0 **** 0.0
9396 C 32.106 13.3879 72.0894 C 0.0 **** 0.0
9397 C 31.0849 13.4538 73.1547 C 0.0 **** 0.0
9398 C 30.8167 14.7581 73.6538 C 0.0 **** 0.0
9399 N 29.7761 14.9341 74.5115 N 0.0 **** 0.0
9400 C 28.9723 13.96 74.9369 C 0.0 **** 0.0
9401 C 29.1735 12.629 74.4397 C 0.0 **** 0.0
9402 C 30.2416 12.3944 73.4884 C 0.0 **** 0.0
9403 C 30.5428 10.9698 72.9391 C 0.0 **** 0.0
9404 C 29.6323 9.88837 73.5625 C 0.0 **** 0.0
9405 C 28.2148 10.4099 73.7514 C 0.0 **** 0.0
9406 C 28.2162 11.5363 74.8462 C 0.0 **** 0.0
9407 C 26.7889 12.017 75.1131 C 0.0 **** 0.0
9408 C 26.8706 13.2617 76.0638 C 0.0 **** 0.0
9409 C 27.8905 14.2547 75.7972 C 0.0 **** 0.0
9410 C 27.8378 15.4449 76.4846 C 0.0 **** 0.0
9411 C 26.8148 15.6782 77.4298 C 0.0 **** 0.0
9412 C 25.813 14.715 77.6692 C 0.0 **** 0.0
9413 C 25.8712 13.4525 77.0533 C 0.0 **** 0.0
9414 C 42.347 17.252 70.4378 C 0.0 **** 0.0
9415 C 42.7586 16.2552 69.3505 C 0.0 **** 0.0
9416 C 44.3261 19.4162 69.6082 C 0.0 **** 0.0
9417 C 39.4009 17.8126 69.796 C 0.0 **** 0.0
9418 C 43.2797 22.1703 69.4902 C 0.0 **** 0.0
9419 C 39.8774 25.5482 70.5167 C 0.0 **** 0.0
9420 C 37.1412 26.219 71.1976 C 0.0 **** 0.0
9421 O 35.497 25.0505 73.272 O 0.0 **** 0.0
9422 C 30.2951 24.3539 74.2807 C 0.0 **** 0.0
9423 C 28.9383 24.0482 71.5788 C 0.0 **** 0.0
9424 O 30.6326 20.0409 74.1331 O 0.0 **** 0.0
9425 O 35.7873 18.9538 72.6761 O 0.0 **** 0.0
9426 O 34.941 16.4396 71.916 O 0.0 **** 0.0
9427 O 30.1033 17.4556 73.8532 O 0.0 **** 0.0
9428 C 25.0031 12.3005 77.5098 C 0.0 **** 0.0
9429 C 24.7503 15.0644 78.708 C 0.0 **** 0.0
9430 H 37.8555 20.2578 69.4541 H 0.0 **** 0.0
9431 H 38.25 20.0022 71.1788 H 0.0 **** 0.0
9432 H 41.2052 23.3749 70.0912 H 0.0 **** 0.0
9433 H 40.1747 23.0359 68.7281 H 0.0 **** 0.0
9434 H 36.0786 20.4413 71.0157 H 0.0 **** 0.0
9435 H 31.5159 22.2157 70.7752 H 0.0 **** 0.0
9436 H 30.1337 21.8106 71.9032 H 0.0 **** 0.0
9437 H 30.8745 24.461 70.8067 H 0.0 **** 0.0
9438 H 30.7141 25.7826 72.6987 H 0.0 **** 0.0
9439 H 32.849 25.4138 73.7166 H 0.0 **** 0.0
9440 H 32.9415 25.0269 72.0215 H 0.0 **** 0.0
9441 H 33.9728 14.1518 71.6515 H 0.0 **** 0.0
9442 H 33.809 13.802 73.3953 H 0.0 **** 0.0
9443 H 32.5088 12.3578 71.9148 H 0.0 **** 0.0
9444 H 31.672 13.8079 71.0981 H 0.0 **** 0.0
9445 H 30.3884 10.9544 71.8189 H 0.0 **** 0.0
9446 H 31.6274 10.5975 73.0631 H 0.0 **** 0.0
9447 H 30.0397 9.50297 74.472 H 0.0 **** 0.0
9448 H 29.5471 9.02325 72.8421 H 0.0 **** 0.0
9449 H 27.5681 9.55897 74.1114 H 0.0 **** 0.0
9450 H 27.8675 10.869 72.8388 H 0.0 **** 0.0
9451 H 28.6217 11.0615 75.7665 H 0.0 **** 0.0
9452 H 26.3692 12.3529 74.1299 H 0.0 **** 0.0
9453 H 26.1814 11.199 75.6117 H 0.0 **** 0.0
9454 H 28.5146 16.2348 76.2623 H 0.0 **** 0.0
9455 H 26.7619 16.6123 77.9927 H 0.0 **** 0.0
9456 H 41.4684 16.7984 70.9332 H 0.0 **** 0.0
9457 H 43.2414 17.3678 71.1203 H 0.0 **** 0.0
9458 H 42.7081 15.2187 69.698 H 0.0 **** 0.0
9459 H 43.7848 16.4549 69.0164 H 0.0 **** 0.0
9460 H 42.0701 16.3036 68.4827 H 0.0 **** 0.0
9461 H 44.6565 19.7947 68.6732 H 0.0 **** 0.0
9462 H 44.5667 18.3371 69.5222 H 0.0 **** 0.0
9463 H 44.8681 19.8267 70.4597 H 0.0 **** 0.0
9464 H 38.5161 18.0774 69.1998 H 0.0 **** 0.0
9465 H 39.0849 17.4843 70.8223 H 0.0 **** 0.0
9466 H 39.848 16.9546 69.3704 H 0.0 **** 0.0
9467 H 42.7958 22.7979 68.7237 H 0.0 **** 0.0
9468 H 44.2776 21.9045 69.0864 H 0.0 **** 0.0
9469 H 43.4549 22.5952 70.488 H 0.0 **** 0.0
9470 H 39.5278 26.5421 70.7054 H 0.0 **** 0.0
9471 H 40.1875 25.4934 69.4771 H 0.0 **** 0.0
9472 H 40.7752 25.4025 71.1797 H 0.0 **** 0.0
9473 H 37.669 26.8192 71.9339 H 0.0 **** 0.0
9474 H 36.0769 26.3263 71.3298 H 0.0 **** 0.0
9475 H 37.3351 26.5646 70.1908 H 0.0 **** 0.0
9476 H 35.0041 24.8405 74.1108 H 0.0 **** 0.0
9477 H 29.3731 24.9485 74.4473 H 0.0 **** 0.0
9478 H 31.03 24.515 75.134 H 0.0 **** 0.0
9479 H 29.9887 23.2824 74.3565 H 0.0 **** 0.0
9480 H 28.5985 23.7365 70.5815 H 0.0 **** 0.0
9481 H 28.6324 25.1253 71.6684 H 0.0 **** 0.0
9482 H 28.4138 23.4557 72.366 H 0.0 **** 0.0
9483 H 30.4465 19.4822 74.9296 H 0.0 **** 0.0
9484 H 36.0643 18.1551 73.2418 H 0.0 **** 0.0
9485 H 24.3788 12.0706 76.7113 H 0.0 **** 0.0
9486 H 24.3383 12.5448 78.3505 H 0.0 **** 0.0
9487 H 25.56 11.3793 77.7876 H 0.0 **** 0.0
9488 H 23.753 14.7824 78.343 H 0.0 **** 0.0
9489 H 24.6846 16.1742 78.9579 H 0.0 **** 0.0
9490 H 25.0279 14.5704 79.7029 H 0.0 **** 0.0
9491 C 98.0344 70.0684 38.5597 C 0.0 **** 0.0
9492 C 99.4447 69.7802 38.6148 C 0.0 **** 0.0
9493 C 99.9841 69.0752 39.7334 C 0.0 **** 0.0
9494 C 99.2098 68.9891 40.9088 C 0.0 **** 0.0
9495 C 97.8229 69.3131 40.9025 C 0.0 **** 0.0
9496 C 97.1876 69.6985 39.6783 C 0.0 **** 0.0
9497 C 99.7417 68.4142 42.1925 C 0.0 **** 0.0
9498 C 101.063 67.6924 42.1324 C 0.0 **** 0.0
9499 C 101.831 67.6202 40.9557 C 0.0 **** 0.0
9500 C 101.374 68.4044 39.7078 C 0.0 **** 0.0
9501 C 103.058 66.8867 40.9682 C 0.0 **** 0.0
9502 C 103.558 66.4301 42.1981 C 0.0 **** 0.0
9503 C 102.714 66.391 43.3584 C 0.0 **** 0.0
9504 C 101.515 67.1073 43.3536 C 0.0 **** 0.0
9505 C 100.682 67.1048 44.525 C 0.0 **** 0.0
9506 C 101.044 66.3683 45.6629 C 0.0 **** 0.0
9507 C 102.284 65.7677 45.6881 C 0.0 **** 0.0
9508 C 103.029 65.5949 44.4925 C 0.0 **** 0.0
9509 C 102.942 65.5221 47.0103 C 0.0 **** 0.0
9510 C 102.116 65.9603 48.2275 C 0.0 **** 0.0
9511 C 100.638 65.8645 47.9907 C 0.0 **** 0.0
9512 C 100.121 66.2112 46.7454 C 0.0 **** 0.0
9513 C 102.494 67.4473 48.727 C 0.0 **** 0.0
9514 C 103.081 68.3597 47.6026 C 0.0 **** 0.0
9515 C 104.322 67.7933 47.0717 C 0.0 **** 0.0
9516 C 104.354 66.209 47.1261 C 0.0 **** 0.0
9517 C 98.7138 66.194 46.5215 C 0.0 **** 0.0
9518 C 97.8598 66.0952 47.6489 C 0.0 **** 0.0
9519 C 98.3607 65.5927 48.8691 C 0.0 **** 0.0
9520 C 99.7702 65.4858 49.0309 C 0.0 **** 0.0
9521 C 97.3833 65.2794 49.9614 C 0.0 **** 0.0
9522 C 95.9179 65.0857 49.6131 C 0.0 **** 0.0
9523 C 95.4666 65.5354 48.3725 C 0.0 **** 0.0
9524 C 96.3808 66.3189 47.5077 C 0.0 **** 0.0
9525 C 94.0966 65.2364 47.8605 C 0.0 **** 0.0
9526 C 93.0408 64.9971 48.9702 C 0.0 **** 0.0
9527 C 93.643 64.3366 50.2019 C 0.0 **** 0.0
9528 C 95.015 64.4362 50.437 C 0.0 **** 0.0
9529 N 95.5714 63.7788 51.4946 N 0.0 **** 0.0
9530 C 94.8696 63.1589 52.4394 C 0.0 **** 0.0
9531 C 93.4852 63.2377 52.4432 C 0.0 **** 0.0
9532 C 92.8537 63.7798 51.2579 C 0.0 **** 0.0
9533 C 91.3599 63.802 51.1659 C 0.0 **** 0.0
9534 C 90.708 62.7626 52.1169 C 0.0 **** 0.0
9535 C 91.2294 62.9113 53.5718 C 0.0 **** 0.0
9536 C 92.7156 62.5988 53.582 C 0.0 **** 0.0
9537 C 93.4286 62.9601 54.9248 C 0.0 **** 0.0
9538 C 94.9355 62.7215 54.8448 C 0.0 **** 0.0
9539 C 95.5898 62.7917 53.592 C 0.0 **** 0.0
9540 C 96.9704 62.4432 53.5101 C 0.0 **** 0.0
9541 C 97.7356 62.2089 54.6791 C 0.0 **** 0.0
9542 C 97.1653 62.3842 55.9279 C 0.0 **** 0.0
9543 C 95.7599 62.5807 56.0112 C 0.0 **** 0.0
9544 C 95.6685 69.7995 39.6233 C 0.0 **** 0.0
9545 C 95.1469 71.2373 39.8535 C 0.0 **** 0.0
9546 C 97.3832 70.6351 37.3347 C 0.0 **** 0.0
9547 C 97.0622 69.2379 42.2291 C 0.0 **** 0.0
9548 C 100.348 69.9696 37.4282 C 0.0 **** 0.0
9549 C 103.809 66.6668 39.6719 C 0.0 **** 0.0
9550 C 105.069 66.2889 42.3406 C 0.0 **** 0.0
9551 O 103.911 64.5573 44.336 O 0.0 **** 0.0
9552 C 105.562 68.3082 47.8402 C 0.0 **** 0.0
9553 C 103.164 69.8316 48.059 C 0.0 **** 0.0
9554 O 100.337 65.0899 50.2658 O 0.0 **** 0.0
9555 O 98.1584 66.1823 45.2098 O 0.0 **** 0.0
9556 O 95.9041 67.1369 46.7276 O 0.0 **** 0.0
9557 O 97.7054 65.2541 51.1405 O 0.0 **** 0.0
9558 C 95.0974 62.6946 57.375 C 0.0 **** 0.0
9559 C 98.061 62.2798 57.1197 C 0.0 **** 0.0
9560 H 99.8572 69.2434 42.9099 H 0.0 **** 0.0
9561 H 99.032 67.7034 42.5549 H 0.0 **** 0.0
9562 H 101.325 67.6608 38.8833 H 0.0 **** 0.0
9563 H 102.177 69.1727 39.4552 H 0.0 **** 0.0
9564 H 99.7248 67.6675 44.565 H 0.0 **** 0.0
9565 H 101.613 67.8812 49.1847 H 0.0 **** 0.0
9566 H 103.239 67.3075 49.5178 H 0.0 **** 0.0
9567 H 102.376 68.315 46.7658 H 0.0 **** 0.0
9568 H 104.405 68.0974 45.9754 H 0.0 **** 0.0
9569 H 104.818 65.8575 48.1044 H 0.0 **** 0.0
9570 H 105.058 65.8028 46.3638 H 0.0 **** 0.0
9571 H 93.711 66.1107 47.3329 H 0.0 **** 0.0
9572 H 94.1697 64.3224 47.2362 H 0.0 **** 0.0
9573 H 92.2461 64.3754 48.5595 H 0.0 **** 0.0
9574 H 92.5455 65.9444 49.2339 H 0.0 **** 0.0
9575 H 90.9487 64.8015 51.416 H 0.0 **** 0.0
9576 H 90.9111 63.5857 50.2012 H 0.0 **** 0.0
9577 H 90.8801 61.7709 51.6722 H 0.0 **** 0.0
9578 H 89.6269 62.9413 52.0937 H 0.0 **** 0.0
9579 H 90.7418 62.2148 54.2647 H 0.0 **** 0.0
9580 H 91.0502 63.8981 53.9777 H 0.0 **** 0.0
9581 H 92.8463 61.5491 53.3736 H 0.0 **** 0.0
9582 H 93.1404 63.9922 55.1395 H 0.0 **** 0.0
9583 H 93.0195 62.2572 55.6862 H 0.0 **** 0.0
9584 H 97.4578 62.3354 52.5415 H 0.0 **** 0.0
9585 H 98.8061 62.098 54.5348 H 0.0 **** 0.0
9586 H 95.1665 69.1148 40.328 H 0.0 **** 0.0
9587 H 95.2944 69.417 38.6574 H 0.0 **** 0.0
9588 H 95.6498 72.0257 39.2302 H 0.0 **** 0.0
9589 H 95.3395 71.5367 40.9003 H 0.0 **** 0.0
9590 H 94.0441 71.218 39.6545 H 0.0 **** 0.0
9591 H 97.8277 71.5546 37.0625 H 0.0 **** 0.0
9592 H 96.3503 70.7895 37.3695 H 0.0 **** 0.0
9593 H 97.6019 69.9276 36.5698 H 0.0 **** 0.0
9594 H 97.634 69.5795 43.1359 H 0.0 **** 0.0
9595 H 96.7016 68.1922 42.3387 H 0.0 **** 0.0
9596 H 96.157 69.8972 42.2361 H 0.0 **** 0.0
9597 H 101.335 70.4287 37.8351 H 0.0 **** 0.0
9598 H 99.961 70.6945 36.665 H 0.0 **** 0.0
9599 H 100.57 68.9805 36.9633 H 0.0 **** 0.0
9600 H 104.512 65.8278 39.7596 H 0.0 **** 0.0
9601 H 104.353 67.6075 39.4027 H 0.0 **** 0.0
9602 H 103.129 66.3619 38.8661 H 0.0 **** 0.0
9603 H 105.371 66.7792 43.2925 H 0.0 **** 0.0
9604 H 105.574 66.761 41.489 H 0.0 **** 0.0
9605 H 105.396 65.2342 42.2555 H 0.0 **** 0.0
9606 H 104.032 63.9947 45.1529 H 0.0 **** 0.0
9607 H 105.686 69.3812 47.6915 H 0.0 **** 0.0
9608 H 106.485 67.8628 47.4265 H 0.0 **** 0.0
9609 H 105.564 68.1066 48.9024 H 0.0 **** 0.0
9610 H 102.129 70.1618 48.1851 H 0.0 **** 0.0
9611 H 103.562 70.5079 47.3104 H 0.0 **** 0.0
9612 H 103.794 69.9452 48.9199 H 0.0 **** 0.0
9613 H 99.8864 64.3449 50.7662 H 0.0 **** 0.0
9614 H 97.1678 65.9818 45.1584 H 0.0 **** 0.0
9615 H 94.34 63.5411 57.4186 H 0.0 **** 0.0
9616 H 95.8299 62.9245 58.176 H 0.0 **** 0.0
9617 H 94.5503 61.7723 57.5966 H 0.0 **** 0.0
9618 H 97.6788 61.5803 57.8804 H 0.0 **** 0.0
9619 H 98.1983 63.2597 57.5913 H 0.0 **** 0.0
9620 H 99.057 61.9349 56.8421 H 0.0 **** 0.0
9621 C 45.3882 71.0939 7.4675 C 0.0 **** 0.0
9622 C 44.4395 71.8187 6.70754 C 0.0 **** 0.0
9623 C 43.7945 72.9757 7.21446 C 0.0 **** 0.0
9624 C 44.0982 73.4026 8.50664 C 0.0 **** 0.0
9625 C 44.9892 72.6435 9.32926 C 0.0 **** 0.0
9626 C 45.6757 71.5114 8.79745 C 0.0 **** 0.0
9627 C 43.6223 74.7375 9.00667 C 0.0 **** 0.0
9628 C 42.4926 75.3821 8.27429 C 0.0 **** 0.0
9629 C 41.9614 74.8 7.12118 C 0.0 **** 0.0
9630 C 42.7228 73.6936 6.41449 C 0.0 **** 0.0
9631 C 40.7999 75.3325 6.54593 C 0.0 **** 0.0
9632 C 40.0417 76.2594 7.30057 C 0.0 **** 0.0
9633 C 40.6906 77.0634 8.28805 C 0.0 **** 0.0
9634 C 41.9642 76.6545 8.72306 C 0.0 **** 0.0
9635 C 42.7492 77.5042 9.57338 C 0.0 **** 0.0
9636 C 42.2181 78.7486 9.99163 C 0.0 **** 0.0
9637 C 40.803 78.9431 9.88587 C 0.0 **** 0.0
9638 C 40.1013 78.2204 8.84303 C 0.0 **** 0.0
9639 C 40.1236 79.9226 10.8176 C 0.0 **** 0.0
9640 C 41.0994 80.6172 11.8651 C 0.0 **** 0.0
9641 C 42.4872 80.7667 11.3481 C 0.0 **** 0.0
9642 C 43.0205 79.7746 10.5145 C 0.0 **** 0.0
9643 C 41.1185 79.8687 13.2282 C 0.0 **** 0.0
9644 C 40.6296 78.4308 13.2121 C 0.0 **** 0.0
9645 C 39.2846 78.2754 12.6634 C 0.0 **** 0.0
9646 C 38.8984 79.3158 11.5368 C 0.0 **** 0.0
9647 C 44.3842 79.947 10.1117 C 0.0 **** 0.0
9648 C 45.1847 80.962 10.6719 C 0.0 **** 0.0
9649 C 44.548 82.0089 11.4007 C 0.0 **** 0.0
9650 C 43.2072 81.8762 11.7844 C 0.0 **** 0.0
9651 C 45.3453 83.2664 11.7449 C 0.0 **** 0.0
9652 C 46.8316 83.2571 11.499 C 0.0 **** 0.0
9653 C 47.4007 82.2739 10.6999 C 0.0 **** 0.0
9654 C 46.6474 81.0595 10.3592 C 0.0 **** 0.0
9655 C 48.8404 82.4165 10.2991 C 0.0 **** 0.0
9656 C 49.6806 83.0212 11.4349 C 0.0 **** 0.0
9657 C 49.0218 84.309 11.8559 C 0.0 **** 0.0
9658 C 47.6439 84.3442 11.9954 C 0.0 **** 0.0
9659 N 47.0734 85.3386 12.7147 N 0.0 **** 0.0
9660 C 47.7943 86.3647 13.218 C 0.0 **** 0.0
9661 C 49.1739 86.4832 12.8916 C 0.0 **** 0.0
9662 C 49.7905 85.4621 12.1514 C 0.0 **** 0.0
9663 C 51.2897 85.5205 11.8675 C 0.0 **** 0.0
9664 C 51.9055 86.9201 12.0421 C 0.0 **** 0.0
9665 C 51.4258 87.511 13.3523 C 0.0 **** 0.0
9666 C 49.9143 87.7132 13.3135 C 0.0 **** 0.0
9667 C 49.3985 88.0843 14.7279 C 0.0 **** 0.0
9668 C 47.9009 88.3072 14.6916 C 0.0 **** 0.0
9669 C 47.1354 87.3078 14.0399 C 0.0 **** 0.0
9670 C 45.7667 87.3757 14.15 C 0.0 **** 0.0
9671 C 45.0964 88.4658 14.7882 C 0.0 **** 0.0
9672 C 45.8292 89.5104 15.3491 C 0.0 **** 0.0
9673 C 47.2698 89.4505 15.3152 C 0.0 **** 0.0
9674 C 46.5905 70.6822 9.69288 C 0.0 **** 0.0
9675 C 45.9047 69.7457 10.6432 C 0.0 **** 0.0
9676 C 45.9145 69.7388 6.94337 C 0.0 **** 0.0
9677 C 45.2227 73.1106 10.788 C 0.0 **** 0.0
9678 C 44.1267 71.2855 5.31791 C 0.0 **** 0.0
9679 C 40.375 74.9247 5.1478 C 0.0 **** 0.0
9680 C 38.5735 76.3453 7.01747 C 0.0 **** 0.0
9681 O 38.8763 78.7168 8.32749 O 0.0 **** 0.0
9682 C 38.1667 78.3763 13.7308 C 0.0 **** 0.0
9683 C 40.77 77.7435 14.5669 C 0.0 **** 0.0
9684 O 42.5339 82.9081 12.4975 O 0.0 **** 0.0
9685 O 44.9386 79.1887 9.05827 O 0.0 **** 0.0
9686 O 47.1941 80.0821 9.89323 O 0.0 **** 0.0
9687 O 44.7839 84.2898 12.0462 O 0.0 **** 0.0
9688 C 48.081 90.5234 15.9255 C 0.0 **** 0.0
9689 C 45.0615 90.7009 15.895 C 0.0 **** 0.0
9690 H 43.274 74.6165 10.0498 H 0.0 **** 0.0
9691 H 44.4876 75.339 8.9656 H 0.0 **** 0.0
9692 H 43.1616 74.0972 5.47201 H 0.0 **** 0.0
9693 H 41.9853 72.9039 6.1569 H 0.0 **** 0.0
9694 H 43.779 77.2425 9.86265 H 0.0 **** 0.0
9695 H 42.1486 79.9274 13.5979 H 0.0 **** 0.0
9696 H 40.5275 80.4853 13.9435 H 0.0 **** 0.0
9697 H 41.2762 77.8342 12.5368 H 0.0 **** 0.0
9698 H 39.1525 77.2915 12.1939 H 0.0 **** 0.0
9699 H 38.3567 80.2316 11.9477 H 0.0 **** 0.0
9700 H 38.2008 78.8499 10.8183 H 0.0 **** 0.0
9701 H 49.3379 81.4221 10.0202 H 0.0 **** 0.0
9702 H 48.8984 83.0662 9.36806 H 0.0 **** 0.0
9703 H 50.717 83.2304 11.0614 H 0.0 **** 0.0
9704 H 49.7639 82.3363 12.2947 H 0.0 **** 0.0
9705 H 51.8083 84.7731 12.4875 H 0.0 **** 0.0
9706 H 51.4992 85.2834 10.7677 H 0.0 **** 0.0
9707 H 51.5777 87.573 11.2012 H 0.0 **** 0.0
9708 H 52.9758 86.9304 12.0065 H 0.0 **** 0.0
9709 H 51.9699 88.466 13.5063 H 0.0 **** 0.0
9710 H 51.7165 86.7574 14.1496 H 0.0 **** 0.0
9711 H 49.6986 88.5913 12.6457 H 0.0 **** 0.0
9712 H 49.6348 87.3169 15.4906 H 0.0 **** 0.0
9713 H 49.9257 88.971 15.0611 H 0.0 **** 0.0
9714 H 45.1139 86.6342 13.7068 H 0.0 **** 0.0
9715 H 43.996 88.488 14.8205 H 0.0 **** 0.0
9716 H 47.2749 71.3633 10.2657 H 0.0 **** 0.0
9717 H 47.3506 70.1642 9.13733 H 0.0 **** 0.0
9718 H 45.4905 68.872 10.0981 H 0.0 **** 0.0
9719 H 45.0452 70.2028 11.1234 H 0.0 **** 0.0
9720 H 46.6489 69.33 11.337 H 0.0 **** 0.0
9721 H 45.2346 69.2504 6.18308 H 0.0 **** 0.0
9722 H 45.9092 68.9945 7.79531 H 0.0 **** 0.0
9723 H 46.9163 69.8441 6.5924 H 0.0 **** 0.0
9724 H 44.2379 73.1544 11.2844 H 0.0 **** 0.0
9725 H 45.7271 74.0967 10.8146 H 0.0 **** 0.0
9726 H 45.8146 72.4365 11.4121 H 0.0 **** 0.0
9727 H 43.5064 71.9407 4.66171 H 0.0 **** 0.0
9728 H 43.5853 70.3249 5.28975 H 0.0 **** 0.0
9729 H 45.0684 71.1808 4.80454 H 0.0 **** 0.0
9730 H 39.4886 75.4432 4.81069 H 0.0 **** 0.0
9731 H 40.2151 73.8677 5.09598 H 0.0 **** 0.0
9732 H 41.2087 75.2153 4.45342 H 0.0 **** 0.0
9733 H 37.934 76.6501 7.90475 H 0.0 **** 0.0
9734 H 38.2423 75.3295 6.63707 H 0.0 **** 0.0
9735 H 38.387 77.1672 6.25403 H 0.0 **** 0.0
9736 H 38.6762 79.6732 8.62133 H 0.0 **** 0.0
9737 H 38.1995 77.4662 14.377 H 0.0 **** 0.0
9738 H 37.1545 78.4665 13.2932 H 0.0 **** 0.0
9739 H 38.2577 79.2714 14.4095 H 0.0 **** 0.0
9740 H 41.7936 77.6908 14.9122 H 0.0 **** 0.0
9741 H 40.4459 76.6741 14.5354 H 0.0 **** 0.0
9742 H 40.2658 78.2618 15.4225 H 0.0 **** 0.0
9743 H 43.0742 83.3083 13.2421 H 0.0 **** 0.0
9744 H 44.3173 79.0234 8.28458 H 0.0 **** 0.0
9745 H 48.7103 90.1633 16.7067 H 0.0 **** 0.0
9746 H 47.459 91.3318 16.3875 H 0.0 **** 0.0
9747 H 48.6625 90.9836 15.1033 H 0.0 **** 0.0
9748 H 45.2138 90.8004 16.989 H 0.0 **** 0.0
9749 H 43.9762 90.6139 15.7184 H 0.0 **** 0.0
9750 H 45.3829 91.6563 15.4016 H 0.0 **** 0.0
9751 C 15.5715 54.4399 36.5106 C 0.0 **** 0.0
9752 C 15.0151 54.7986 37.7799 C 0.0 **** 0.0
9753 C 14.4746 53.7844 38.5737 C 0.0 **** 0.0
9754 C 14.6532 52.4192 38.2611 C 0.0 **** 0.0
9755 C 15.4216 52.0569 37.1157 C 0.0 **** 0.0
9756 C 15.7868 53.0835 36.2086 C 0.0 **** 0.0
9757 C 14.1432 51.389 39.2448 C 0.0 **** 0.0
9758 C 13.0324 51.7198 40.2022 C 0.0 **** 0.0
9759 C 12.8294 53.1039 40.4546 C 0.0 **** 0.0
9760 C 13.6828 54.1659 39.774 C 0.0 **** 0.0
9761 C 11.8328 53.4972 41.371 C 0.0 **** 0.0
9762 C 11.0406 52.5113 42.0056 C 0.0 **** 0.0
9763 C 11.4026 51.1159 41.9349 C 0.0 **** 0.0
9764 C 12.4089 50.7106 40.993 C 0.0 **** 0.0
9765 C 12.7982 49.3706 40.9384 C 0.0 **** 0.0
9766 C 12.1055 48.3624 41.6746 C 0.0 **** 0.0
9767 C 10.9877 48.7703 42.4437 C 0.0 **** 0.0
9768 C 10.8165 50.1331 42.7577 C 0.0 **** 0.0
9769 C 10.1309 47.6674 43.0478 C 0.0 **** 0.0
9770 C 10.2546 46.3294 42.2935 C 0.0 **** 0.0
9771 C 11.6743 45.9909 42.1536 C 0.0 **** 0.0
9772 C 12.5826 46.9995 41.765 C 0.0 **** 0.0
9773 C 9.59397 46.4698 40.884 C 0.0 **** 0.0
9774 C 8.08409 46.7468 41.0267 C 0.0 **** 0.0
9775 C 7.92105 48.0217 41.7421 C 0.0 **** 0.0
9776 C 8.63573 48.0165 43.1111 C 0.0 **** 0.0
9777 C 13.9509 46.6437 41.567 C 0.0 **** 0.0
9778 C 14.3099 45.2961 41.563 C 0.0 **** 0.0
9779 C 13.4366 44.3107 42.0622 C 0.0 **** 0.0
9780 C 12.1037 44.6878 42.4411 C 0.0 **** 0.0
9781 C 13.963 42.8869 42.2127 C 0.0 **** 0.0
9782 C 15.4424 42.728 42.3999 C 0.0 **** 0.0
9783 C 16.284 43.6487 41.7319 C 0.0 **** 0.0
9784 C 15.6553 44.8597 41.1369 C 0.0 **** 0.0
9785 C 17.7074 43.346 41.5669 C 0.0 **** 0.0
9786 C 18.3098 42.7025 42.8054 C 0.0 **** 0.0
9787 C 17.418 41.639 43.4194 C 0.0 **** 0.0
9788 C 16.0039 41.6854 43.1739 C 0.0 **** 0.0
9789 N 15.2604 40.6143 43.5581 N 0.0 **** 0.0
9790 C 15.7798 39.4742 44.1389 C 0.0 **** 0.0
9791 C 17.1017 39.4929 44.5898 C 0.0 **** 0.0
9792 C 17.9623 40.563 44.1361 C 0.0 **** 0.0
9793 C 19.4537 40.4107 44.4478 C 0.0 **** 0.0
9794 C 19.7541 39.6758 45.7204 C 0.0 **** 0.0
9795 C 19.1171 38.3653 45.7597 C 0.0 **** 0.0
9796 C 17.5907 38.4296 45.5784 C 0.0 **** 0.0
9797 C 17.0521 37.0409 45.1734 C 0.0 **** 0.0
9798 C 15.6994 37.0793 44.5939 C 0.0 **** 0.0
9799 C 15.0361 38.2764 44.1689 C 0.0 **** 0.0
9800 C 13.71 38.266 43.6613 C 0.0 **** 0.0
9801 C 12.9912 37.1023 43.7524 C 0.0 **** 0.0
9802 C 13.5956 35.8854 44.1508 C 0.0 **** 0.0
9803 C 14.968 35.8606 44.4735 C 0.0 **** 0.0
9804 C 16.4073 52.6884 34.8564 C 0.0 **** 0.0
9805 C 15.324 52.003 34.0325 C 0.0 **** 0.0
9806 C 15.8977 55.5303 35.4957 C 0.0 **** 0.0
9807 C 15.7952 50.6032 36.9779 C 0.0 **** 0.0
9808 C 15.0901 56.2153 38.3133 C 0.0 **** 0.0
9809 C 11.7321 54.9169 41.812 C 0.0 **** 0.0
9810 C 9.81014 52.9816 42.7479 C 0.0 **** 0.0
9811 O 10.3214 50.5325 43.9948 O 0.0 **** 0.0
9812 C 6.43874 48.4727 41.7998 C 0.0 **** 0.0
9813 C 7.28613 45.56 41.6159 C 0.0 **** 0.0
9814 O 11.2484 43.7632 43.0808 O 0.0 **** 0.0
9815 O 14.9504 47.6525 41.4931 O 0.0 **** 0.0
9816 O 16.3137 45.5087 40.3082 O 0.0 **** 0.0
9817 O 13.23 41.9289 42.0972 O 0.0 **** 0.0
9818 C 15.6142 34.5568 44.8144 C 0.0 **** 0.0
9819 C 12.7441 34.6491 44.165 C 0.0 **** 0.0
9820 H 13.728 50.5889 38.6377 H 0.0 **** 0.0
9821 H 15.0238 51.0878 39.8755 H 0.0 **** 0.0
9822 H 14.4135 54.5559 40.4942 H 0.0 **** 0.0
9823 H 12.9999 54.9623 39.3797 H 0.0 **** 0.0
9824 H 13.6017 49.0866 40.2853 H 0.0 **** 0.0
9825 H 10.1132 47.2694 40.2814 H 0.0 **** 0.0
9826 H 9.71641 45.49 40.3435 H 0.0 **** 0.0
9827 H 7.64116 46.8954 39.9994 H 0.0 **** 0.0
9828 H 8.36165 48.7969 41.0633 H 0.0 **** 0.0
9829 H 8.06677 47.2982 43.7668 H 0.0 **** 0.0
9830 H 8.50674 48.9442 43.6411 H 0.0 **** 0.0
9831 H 17.8038 42.5987 40.6695 H 0.0 **** 0.0
9832 H 18.226 44.2617 41.3222 H 0.0 **** 0.0
9833 H 18.5626 43.4374 43.5523 H 0.0 **** 0.0
9834 H 19.2879 42.2859 42.4238 H 0.0 **** 0.0
9835 H 19.9357 39.8912 43.6164 H 0.0 **** 0.0
9836 H 19.8935 41.4195 44.5564 H 0.0 **** 0.0
9837 H 19.5507 40.3281 46.6059 H 0.0 **** 0.0
9838 H 20.8935 39.4682 45.7564 H 0.0 **** 0.0
9839 H 19.3126 37.8768 46.7348 H 0.0 **** 0.0
9840 H 19.6248 37.769 44.9927 H 0.0 **** 0.0
9841 H 17.105 38.7135 46.5532 H 0.0 **** 0.0
9842 H 17.6849 36.5092 44.4036 H 0.0 **** 0.0
9843 H 17.0562 36.3295 46.0199 H 0.0 **** 0.0
9844 H 13.2417 39.1966 43.2636 H 0.0 **** 0.0
9845 H 11.9497 37.1275 43.4207 H 0.0 **** 0.0
9846 H 17.2849 52.0037 35.0469 H 0.0 **** 0.0
9847 H 16.7519 53.55 34.2985 H 0.0 **** 0.0
9848 H 14.342 52.4654 34.2118 H 0.0 **** 0.0
9849 H 15.2322 50.8821 34.2734 H 0.0 **** 0.0
9850 H 15.5925 52.0761 32.9422 H 0.0 **** 0.0
9851 H 15.5283 56.5526 35.7939 H 0.0 **** 0.0
9852 H 15.3922 55.36 34.539 H 0.0 **** 0.0
9853 H 16.9818 55.5464 35.3198 H 0.0 **** 0.0
9854 H 15.043 50.0391 36.3936 H 0.0 **** 0.0
9855 H 15.9914 50.1352 37.9434 H 0.0 **** 0.0
9856 H 16.7346 50.5161 36.4743 H 0.0 **** 0.0
9857 H 15.3875 56.2126 39.3916 H 0.0 **** 0.0
9858 H 14.0891 56.6809 38.2173 H 0.0 **** 0.0
9859 H 15.9192 56.7968 37.8758 H 0.0 **** 0.0
9860 H 12.7118 55.3614 42.0656 H 0.0 **** 0.0
9861 H 11.1477 55.0853 42.7478 H 0.0 **** 0.0
9862 H 11.3211 55.4493 40.9829 H 0.0 **** 0.0
9863 H 8.99864 52.2216 42.7286 H 0.0 **** 0.0
9864 H 9.3033 53.8143 42.1859 H 0.0 **** 0.0
9865 H 10.1539 53.266 43.7666 H 0.0 **** 0.0
9866 H 10.4181 49.8222 44.7109 H 0.0 **** 0.0
9867 H 5.92575 48.3729 40.7889 H 0.0 **** 0.0
9868 H 6.41569 49.5441 42.119 H 0.0 **** 0.0
9869 H 5.83257 47.8758 42.5189 H 0.0 **** 0.0
9870 H 7.41798 44.6976 40.9406 H 0.0 **** 0.0
9871 H 6.1807 45.7769 41.5924 H 0.0 **** 0.0
9872 H 7.65774 45.3194 42.6073 H 0.0 **** 0.0
9873 H 11.7363 42.9978 43.5629 H 0.0 **** 0.0
9874 H 15.9144 47.4532 41.7346 H 0.0 **** 0.0
9875 H 15.0145 33.6766 44.4748 H 0.0 **** 0.0
9876 H 15.7085 34.5347 45.9068 H 0.0 **** 0.0
9877 H 16.6079 34.5325 44.3642 H 0.0 **** 0.0
9878 H 12.8857 34.1272 43.211 H 0.0 **** 0.0
9879 H 11.6794 34.9193 44.2345 H 0.0 **** 0.0
9880 H 12.9553 33.9637 45.0488 H 0.0 **** 0.0
9881 C 36.3993 14.6538 15.4618 C 0.0 **** 0.0
9882 C 36.1701 13.2605 15.604 C 0.0 **** 0.0
9883 C 35.1472 12.7928 16.5129 C 0.0 **** 0.0
9884 C 34.3239 13.7178 17.203 C 0.0 **** 0.0
9885 C 34.387 15.1015 16.8336 C 0.0 **** 0.0
9886 C 35.4613 15.556 15.9955 C 0.0 **** 0.0
9887 C 33.2112 13.2331 18.0788 C 0.0 **** 0.0
9888 C 33.308 11.859 18.5999 C 0.0 **** 0.0
9889 C 34.2773 10.9663 18.1001 C 0.0 **** 0.0
9890 C 35.1305 11.316 16.8635 C 0.0 **** 0.0
9891 C 34.5254 9.71747 18.7662 C 0.0 **** 0.0
9892 C 33.7834 9.39534 19.8723 C 0.0 **** 0.0
9893 C 32.6751 10.1862 20.2592 C 0.0 **** 0.0
9894 C 32.4804 11.4394 19.6873 C 0.0 **** 0.0
9895 C 31.4393 12.2677 20.1665 C 0.0 **** 0.0
9896 C 30.6994 11.988 21.3132 C 0.0 **** 0.0
9897 C 30.8934 10.6903 21.9082 C 0.0 **** 0.0
9898 C 31.8138 9.76836 21.326 C 0.0 **** 0.0
9899 C 30.2308 10.3985 23.2131 C 0.0 **** 0.0
9900 C 28.7977 10.8717 23.2731 C 0.0 **** 0.0
9901 C 28.5251 12.1484 22.4163 C 0.0 **** 0.0
9902 C 29.5657 12.7557 21.648 C 0.0 **** 0.0
9903 C 28.4164 11.0184 24.7105 C 0.0 **** 0.0
9904 C 29.2291 12.1814 25.4418 C 0.0 **** 0.0
9905 C 30.6501 12.2337 24.9543 C 0.0 **** 0.0
9906 C 31.1186 10.8752 24.3986 C 0.0 **** 0.0
9907 C 29.3402 14.0319 21.1831 C 0.0 **** 0.0
9908 C 27.9952 14.5012 20.9423 C 0.0 **** 0.0
9909 C 26.9218 13.7038 21.3735 C 0.0 **** 0.0
9910 C 27.2061 12.626 22.2656 C 0.0 **** 0.0
9911 C 25.5426 14.0377 21.1102 C 0.0 **** 0.0
9912 C 25.2321 15.4438 20.8506 C 0.0 **** 0.0
9913 C 26.2398 16.2617 20.3776 C 0.0 **** 0.0
9914 C 27.631 15.757 20.3016 C 0.0 **** 0.0
9915 C 25.8521 17.5424 19.7319 C 0.0 **** 0.0
9916 C 24.8004 18.2622 20.5522 C 0.0 **** 0.0
9917 C 23.6914 17.3708 20.9086 C 0.0 **** 0.0
9918 C 23.9683 15.997 21.1068 C 0.0 **** 0.0
9919 N 22.9693 15.1974 21.575 N 0.0 **** 0.0
9920 C 21.7032 15.6221 21.7706 C 0.0 **** 0.0
9921 C 21.3618 16.9651 21.4822 C 0.0 **** 0.0
9922 C 22.3778 17.8618 21.0496 C 0.0 **** 0.0
9923 C 21.9874 19.3017 20.598 C 0.0 **** 0.0
9924 C 20.4583 19.5101 20.3232 C 0.0 **** 0.0
9925 C 19.6865 18.8462 21.4003 C 0.0 **** 0.0
9926 C 19.9175 17.3636 21.3932 C 0.0 **** 0.0
9927 C 19.0821 16.6956 22.4865 C 0.0 **** 0.0
9928 C 19.4286 15.1876 22.7048 C 0.0 **** 0.0
9929 C 20.7532 14.7621 22.3592 C 0.0 **** 0.0
9930 C 21.0866 13.4381 22.659 C 0.0 **** 0.0
9931 C 20.218 12.5847 23.3368 C 0.0 **** 0.0
9932 C 18.9983 13.0267 23.8005 C 0.0 **** 0.0
9933 C 18.5545 14.3098 23.4489 C 0.0 **** 0.0
9934 C 35.7096 17.0595 15.7649 C 0.0 **** 0.0
9935 C 36.7669 17.5804 16.7037 C 0.0 **** 0.0
9936 C 37.548 15.1538 14.6321 C 0.0 **** 0.0
9937 C 33.3353 16.1162 17.2375 C 0.0 **** 0.0
9938 C 36.9092 12.2562 14.6967 C 0.0 **** 0.0
9939 C 35.6006 8.69696 18.1967 C 0.0 **** 0.0
9940 C 34.3877 8.34994 20.8063 C 0.0 **** 0.0
9941 O 31.7882 8.44538 21.7021 O 0.0 **** 0.0
9942 C 31.6218 12.8933 25.9229 C 0.0 **** 0.0
9943 C 29.064 12.0255 26.9172 C 0.0 **** 0.0
9944 O 26.2365 12.1049 23.1225 O 0.0 **** 0.0
9945 O 30.4291 14.883 20.9457 O 0.0 **** 0.0
9946 O 28.4455 16.3586 19.6258 O 0.0 **** 0.0
9947 O 24.7001 13.1667 20.9978 O 0.0 **** 0.0
9948 C 17.2065 14.821 23.9001 C 0.0 **** 0.0
9949 C 18.2818 12.1233 24.7767 C 0.0 **** 0.0
9950 H 33.2653 13.8604 18.9952 H 0.0 **** 0.0
9951 H 32.2413 13.3053 17.5303 H 0.0 **** 0.0
9952 H 34.665 10.8669 15.9202 H 0.0 **** 0.0
9953 H 36.1883 11.0422 17.0934 H 0.0 **** 0.0
9954 H 31.2242 13.1242 19.6292 H 0.0 **** 0.0
9955 H 27.3153 11.1075 24.8631 H 0.0 **** 0.0
9956 H 28.6803 10.0178 25.2162 H 0.0 **** 0.0
9957 H 28.7561 13.1484 25.1632 H 0.0 **** 0.0
9958 H 30.683 12.9378 24.0983 H 0.0 **** 0.0
9959 H 31.1111 10.0957 25.1872 H 0.0 **** 0.0
9960 H 32.1688 11.0176 24.1094 H 0.0 **** 0.0
9961 H 26.6342 18.2743 19.4648 H 0.0 **** 0.0
9962 H 25.3538 17.2977 18.8203 H 0.0 **** 0.0
9963 H 24.5027 19.1853 20.0124 H 0.0 **** 0.0
9964 H 25.2694 18.6272 21.4721 H 0.0 **** 0.0
9965 H 22.3215 20.0133 21.3633 H 0.0 **** 0.0
9966 H 22.4636 19.5928 19.7047 H 0.0 **** 0.0
9967 H 20.2466 19.0298 19.3559 H 0.0 **** 0.0
9968 H 20.244 20.589 20.2578 H 0.0 **** 0.0
9969 H 18.5776 19.0907 21.2907 H 0.0 **** 0.0
9970 H 20.0745 19.3471 22.3133 H 0.0 **** 0.0
9971 H 19.4754 16.9887 20.4624 H 0.0 **** 0.0
9972 H 19.2415 17.1199 23.4643 H 0.0 **** 0.0
9973 H 17.9969 16.8016 22.2243 H 0.0 **** 0.0
9974 H 22.0387 13.0278 22.3378 H 0.0 **** 0.0
9975 H 20.6064 11.5984 23.6204 H 0.0 **** 0.0
9976 H 34.7838 17.665 15.9222 H 0.0 **** 0.0
9977 H 35.9735 17.3038 14.7101 H 0.0 **** 0.0
9978 H 37.5351 16.8041 17.0214 H 0.0 **** 0.0
9979 H 36.3098 17.9583 17.6432 H 0.0 **** 0.0
9980 H 37.2886 18.4309 16.2186 H 0.0 **** 0.0
9981 H 38.3809 14.4444 14.4989 H 0.0 **** 0.0
9982 H 38.0246 16.0415 15.0368 H 0.0 **** 0.0
9983 H 37.2051 15.366 13.629 H 0.0 **** 0.0
9984 H 32.569 15.6384 17.8248 H 0.0 **** 0.0
9985 H 32.8306 16.5694 16.326 H 0.0 **** 0.0
9986 H 33.8142 16.8906 17.8163 H 0.0 **** 0.0
9987 H 36.5641 11.2021 14.7238 H 0.0 **** 0.0
9988 H 38.003 12.2422 14.9182 H 0.0 **** 0.0
9989 H 36.7777 12.5553 13.6628 H 0.0 **** 0.0
9990 H 35.2808 7.62477 18.3269 H 0.0 **** 0.0
9991 H 36.6492 8.8391 18.5905 H 0.0 **** 0.0
9992 H 35.6817 8.80923 17.0876 H 0.0 **** 0.0
9993 H 34.2918 8.6725 21.852 H 0.0 **** 0.0
9994 H 35.4975 8.22551 20.6838 H 0.0 **** 0.0
9995 H 33.8839 7.35651 20.5946 H 0.0 **** 0.0
9996 H 31.0655 8.21658 22.3974 H 0.0 **** 0.0
9997 H 31.1653 13.818 26.3504 H 0.0 **** 0.0
9998 H 32.5539 13.1905 25.4306 H 0.0 **** 0.0
9999 H 31.902 12.181 26.765 H 0.0 **** 0.0
10000 H 27.9964 11.9311 27.1706 H 0.0 **** 0.0
10001 H 29.4007 12.9386 27.4376 H 0.0 **** 0.0
10002 H 29.6964 11.1701 27.1966 H 0.0 **** 0.0
10003 H 25.5347 12.7925 23.2856 H 0.0 **** 0.0
10004 H 31.3643 14.5648 21.1335 H 0.0 **** 0.0
10005 H 17.3206 15.7519 24.467 H 0.0 **** 0.0
10006 H 16.6725 14.0979 24.4878 H 0.0 **** 0.0
10007 H 16.5718 14.976 22.9889 H 0.0 **** 0.0
10008 H 18.0917 12.6254 25.7375 H 0.0 **** 0.0
10009 H 18.9062 11.2498 24.9617 H 0.0 **** 0.0
10010 H 17.3188 11.7661 24.3632 H 0.0 **** 0.0
10011 C 64.104 5.80393 2.5045 C 0.0 **** 0.0
10012 C 63.8783 4.50776 3.0382 C 0.0 **** 0.0
10013 C 64.8841 3.53141 2.96001 C 0.0 **** 0.0
10014 C 66.0948 3.79458 2.28502 C 0.0 **** 0.0
10015 C 66.2884 5.0818 1.71546 C 0.0 **** 0.0
10016 C 65.3105 6.10527 1.83016 C 0.0 **** 0.0
10017 C 67.0738 2.67223 2.0589 C 0.0 **** 0.0
10018 C 67.0852 1.50429 2.99903 C 0.0 **** 0.0
10019 C 65.9435 1.30108 3.80723 C 0.0 **** 0.0
10020 C 64.7429 2.22866 3.74317 C 0.0 **** 0.0
10021 C 65.9261 0.243597 4.74745 C 0.0 **** 0.0
10022 C 67.0774 -0.482827 4.93529 C 0.0 **** 0.0
10023 C 68.1888 -0.401239 4.03836 C 0.0 **** 0.0
10024 C 68.1857 0.644877 3.07043 C 0.0 **** 0.0
10025 C 69.3643 0.748543 2.26641 C 0.0 **** 0.0
10026 C 70.5557 0.0252517 2.52425 C 0.0 **** 0.0
10027 C 70.4174 -1.13619 3.30571 C 0.0 **** 0.0
10028 C 69.2675 -1.29985 4.10806 C 0.0 **** 0.0
10029 C 71.4563 -2.23719 3.2549 C 0.0 **** 0.0
10030 C 72.8166 -1.77381 2.70186 C 0.0 **** 0.0
10031 C 73.0091 -0.285683 2.27681 C 0.0 **** 0.0
10032 C 71.8429 0.525451 2.17208 C 0.0 **** 0.0
10033 C 73.8072 -2.86971 2.1762 C 0.0 **** 0.0
10034 C 73.0831 -4.04747 1.49417 C 0.0 **** 0.0
10035 C 71.9257 -4.54463 2.25973 C 0.0 **** 0.0
10036 C 70.8708 -3.41578 2.44048 C 0.0 **** 0.0
10037 C 72.042 1.92275 1.99469 C 0.0 **** 0.0
10038 C 73.3121 2.41624 1.64678 C 0.0 **** 0.0
10039 C 74.4637 1.58488 1.7227 C 0.0 **** 0.0
10040 C 74.3034 0.282742 2.18929 C 0.0 **** 0.0
10041 C 75.8068 2.18164 1.41216 C 0.0 **** 0.0
10042 C 75.9782 3.68308 1.2946 C 0.0 **** 0.0
10043 C 74.8495 4.44845 1.24255 C 0.0 **** 0.0
10044 C 73.5003 3.8279 1.23232 C 0.0 **** 0.0
10045 C 74.9478 5.88299 1.68409 C 0.0 **** 0.0
10046 C 76.175 6.56722 1.20976 C 0.0 **** 0.0
10047 C 77.3762 5.64094 1.04893 C 0.0 **** 0.0
10048 C 77.2387 4.24416 1.17986 C 0.0 **** 0.0
10049 N 78.3257 3.45679 1.13093 N 0.0 **** 0.0
10050 C 79.5745 3.88175 0.830006 C 0.0 **** 0.0
10051 C 79.8183 5.2542 0.756322 C 0.0 **** 0.0
10052 C 78.6927 6.16013 0.852112 C 0.0 **** 0.0
10053 C 78.9349 7.64827 0.761426 C 0.0 **** 0.0
10054 C 80.3998 8.08608 0.680116 C 0.0 **** 0.0
10055 C 81.2404 7.13237 -0.102961 C 0.0 **** 0.0
10056 C 81.2146 5.80123 0.631592 C 0.0 **** 0.0
10057 C 82.0283 4.77438 -0.179583 C 0.0 **** 0.0
10058 C 81.9638 3.38124 0.455786 C 0.0 **** 0.0
10059 C 80.6475 2.95305 0.736785 C 0.0 **** 0.0
10060 C 80.421 1.58844 1.08555 C 0.0 **** 0.0
10061 C 81.4639 0.649739 1.09879 C 0.0 **** 0.0
10062 C 82.7497 1.10871 0.852903 C 0.0 **** 0.0
10063 C 83.0336 2.44152 0.523797 C 0.0 **** 0.0
10064 C 65.666 7.57205 1.52311 C 0.0 **** 0.0
10065 C 65.3147 7.9845 0.126579 C 0.0 **** 0.0
10066 C 62.9249 6.76146 2.51791 C 0.0 **** 0.0
10067 C 67.5176 5.25227 0.843995 C 0.0 **** 0.0
10068 C 62.469 4.13641 3.5469 C 0.0 **** 0.0
10069 C 64.6274 -0.103083 5.43881 C 0.0 **** 0.0
10070 C 67.2525 -1.17576 6.29326 C 0.0 **** 0.0
10071 O 69.1408 -2.44593 4.88448 O 0.0 **** 0.0
10072 C 72.2521 -5.19114 3.63764 C 0.0 **** 0.0
10073 C 73.989 -5.21062 1.08536 C 0.0 **** 0.0
10074 O 75.3717 -0.505847 2.69078 O 0.0 **** 0.0
10075 O 71.0185 2.81523 2.32049 O 0.0 **** 0.0
10076 O 72.551 4.53345 0.887519 O 0.0 **** 0.0
10077 O 76.7278 1.44652 1.16035 O 0.0 **** 0.0
10078 C 84.3998 2.9832 0.1419 C 0.0 **** 0.0
10079 C 83.8459 0.0960209 0.925264 C 0.0 **** 0.0
10080 H 66.9406 2.22013 1.02187 H 0.0 **** 0.0
10081 H 68.0557 3.13807 2.1128 H 0.0 **** 0.0
10082 H 64.448 2.53043 4.76267 H 0.0 **** 0.0
10083 H 63.8821 1.66408 3.33613 H 0.0 **** 0.0
10084 H 69.3609 1.4207 1.44967 H 0.0 **** 0.0
10085 H 74.4997 -2.41981 1.48544 H 0.0 **** 0.0
10086 H 74.4142 -3.24324 3.00916 H 0.0 **** 0.0
10087 H 72.7347 -3.62683 0.49008 H 0.0 **** 0.0
10088 H 71.4467 -5.36455 1.60239 H 0.0 **** 0.0
10089 H 70.0386 -3.82314 2.9719 H 0.0 **** 0.0
10090 H 70.5206 -3.12075 1.40913 H 0.0 **** 0.0
10091 H 74.0169 6.44201 1.32612 H 0.0 **** 0.0
10092 H 74.9478 5.86878 2.756 H 0.0 **** 0.0
10093 H 76.3788 7.36873 1.95002 H 0.0 **** 0.0
10094 H 76.0145 7.0593 0.223416 H 0.0 **** 0.0
10095 H 78.2794 8.05375 -0.112909 H 0.0 **** 0.0
10096 H 78.5333 8.12463 1.6715 H 0.0 **** 0.0
10097 H 80.7759 8.08474 1.70755 H 0.0 **** 0.0
10098 H 80.4373 9.13309 0.300371 H 0.0 **** 0.0
10099 H 82.2671 7.48313 -0.161598 H 0.0 **** 0.0
10100 H 80.8015 7.04837 -1.13406 H 0.0 **** 0.0
10101 H 81.7113 5.83147 1.60796 H 0.0 **** 0.0
10102 H 81.6616 4.70289 -1.2305 H 0.0 **** 0.0
10103 H 83.0939 5.16517 -0.276636 H 0.0 **** 0.0
10104 H 79.4359 1.2718 1.33116 H 0.0 **** 0.0
10105 H 81.3057 -0.446709 1.30714 H 0.0 **** 0.0
10106 H 66.7463 7.7782 1.71576 H 0.0 **** 0.0
10107 H 65.1656 8.21945 2.30468 H 0.0 **** 0.0
10108 H 64.2486 8.26662 0.14549 H 0.0 **** 0.0
10109 H 65.6066 7.2423 -0.645681 H 0.0 **** 0.0
10110 H 65.8756 8.93664 -0.0748875 H 0.0 **** 0.0
10111 H 62.2029 6.32192 1.77229 H 0.0 **** 0.0
10112 H 63.1565 7.7825 2.15146 H 0.0 **** 0.0
10113 H 62.5458 6.82041 3.56351 H 0.0 **** 0.0
10114 H 67.4294 4.58884 -0.0216822 H 0.0 **** 0.0
10115 H 68.4986 5.03406 1.42669 H 0.0 **** 0.0
10116 H 67.5721 6.28619 0.430522 H 0.0 **** 0.0
10117 H 62.188 4.69991 4.4795 H 0.0 **** 0.0
10118 H 62.2828 3.04199 3.72298 H 0.0 **** 0.0
10119 H 61.7108 4.39032 2.80104 H 0.0 **** 0.0
10120 H 64.3504 0.71375 6.13837 H 0.0 **** 0.0
10121 H 64.6663 -1.12089 5.91764 H 0.0 **** 0.0
10122 H 63.7822 -0.188399 4.69541 H 0.0 **** 0.0
10123 H 66.8587 -2.19286 6.16983 H 0.0 **** 0.0
10124 H 66.68 -0.663242 7.08317 H 0.0 **** 0.0
10125 H 68.3141 -1.12042 6.57575 H 0.0 **** 0.0
10126 H 70.0534 -2.69852 5.24533 H 0.0 **** 0.0
10127 H 72.8703 -6.10862 3.47135 H 0.0 **** 0.0
10128 H 71.3404 -5.43665 4.16961 H 0.0 **** 0.0
10129 H 72.7641 -4.46802 4.30485 H 0.0 **** 0.0
10130 H 74.8018 -4.83668 0.45432 H 0.0 **** 0.0
10131 H 73.4278 -5.89723 0.479999 H 0.0 **** 0.0
10132 H 74.4601 -5.72736 1.95113 H 0.0 **** 0.0
10133 H 76.1773 0.0262884 2.98628 H 0.0 **** 0.0
10134 H 71.3818 3.68758 2.67003 H 0.0 **** 0.0
10135 H 84.35 3.3905 -0.890665 H 0.0 **** 0.0
10136 H 85.1861 2.23745 0.136077 H 0.0 **** 0.0
10137 H 84.7124 3.76551 0.86399 H 0.0 **** 0.0
10138 H 84.1671 -0.236908 -0.0656762 H 0.0 **** 0.0
10139 H 83.5709 -0.804834 1.53723 H 0.0 **** 0.0
10140 H 84.7087 0.552556 1.50459 H 0.0 **** 0.0
10141 C 49.3088 12.4153 79.7438 C 0.0 **** 0.0
10142 C 48.9426 13.2199 80.8439 C 0.0 **** 0.0
10143 C 47.7337 12.9494 81.5151 C 0.0 **** 0.0
10144 C 47.0559 11.7621 81.3556 C 0.0 **** 0.0
10145 C 47.5565 10.8081 80.4199 C 0.0 **** 0.0
10146 C 48.6908 11.1574 79.6095 C 0.0 **** 0.0
10147 C 45.7128 11.5399 82.0045 C 0.0 **** 0.0
10148 C 45.2101 12.6418 82.93 C 0.0 **** 0.0
10149 C 45.9972 13.7472 83.2924 C 0.0 **** 0.0
10150 C 47.3256 13.9254 82.5996 C 0.0 **** 0.0
10151 C 45.6132 14.7146 84.228 C 0.0 **** 0.0
10152 C 44.3231 14.5428 84.9127 C 0.0 **** 0.0
10153 C 43.5411 13.4102 84.6084 C 0.0 **** 0.0
10154 C 43.96 12.5036 83.5992 C 0.0 **** 0.0
10155 C 43.0924 11.4516 83.242 C 0.0 **** 0.0
10156 C 41.8971 11.2067 83.8966 C 0.0 **** 0.0
10157 C 41.4258 12.2031 84.776 C 0.0 **** 0.0
10158 C 42.3115 13.1511 85.3032 C 0.0 **** 0.0
10159 C 39.946 12.2456 85.0528 C 0.0 **** 0.0
10160 C 39.0902 11.3186 84.1716 C 0.0 **** 0.0
10161 C 39.8117 9.97795 83.8681 C 0.0 **** 0.0
10162 C 41.2063 9.98436 83.6971 C 0.0 **** 0.0
10163 C 38.6357 11.9825 82.8353 C 0.0 **** 0.0
10164 C 39.3136 13.3567 82.5616 C 0.0 **** 0.0
10165 C 39.16 14.3376 83.7126 C 0.0 **** 0.0
10166 C 39.308 13.6503 85.1223 C 0.0 **** 0.0
10167 C 41.8312 8.75275 83.4537 C 0.0 **** 0.0
10168 C 41.081 7.56688 83.3847 C 0.0 **** 0.0
10169 C 39.6738 7.62646 83.3088 C 0.0 **** 0.0
10170 C 39.0252 8.85008 83.5879 C 0.0 **** 0.0
10171 C 38.9344 6.32965 83.0723 C 0.0 **** 0.0
10172 C 39.734 5.12234 82.672 C 0.0 **** 0.0
10173 C 41.0399 5.078 83.0868 C 0.0 **** 0.0
10174 C 41.7438 6.2679 83.551 C 0.0 **** 0.0
10175 C 41.7847 3.77366 83.0944 C 0.0 **** 0.0
10176 C 41.611 3.23272 81.7126 C 0.0 **** 0.0
10177 C 40.1183 3.09966 81.3744 C 0.0 **** 0.0
10178 C 39.2491 4.10583 81.8144 C 0.0 **** 0.0
10179 N 37.981 4.18458 81.3614 N 0.0 **** 0.0
10180 C 37.4832 3.33348 80.4113 C 0.0 **** 0.0
10181 C 38.3733 2.36968 79.8302 C 0.0 **** 0.0
10182 C 39.6817 2.19981 80.3657 C 0.0 **** 0.0
10183 C 40.6545 1.11616 79.8534 C 0.0 **** 0.0
10184 C 39.9087 0.0358936 79.0853 C 0.0 **** 0.0
10185 C 38.8595 0.609253 78.1186 C 0.0 **** 0.0
10186 C 37.7955 1.36413 78.8923 C 0.0 **** 0.0
10187 C 36.7905 2.05756 77.9918 C 0.0 **** 0.0
10188 C 35.742 2.80931 78.823 C 0.0 **** 0.0
10189 C 36.1535 3.49258 80.0069 C 0.0 **** 0.0
10190 C 35.1841 4.23968 80.7476 C 0.0 **** 0.0
10191 C 33.8906 4.36206 80.3032 C 0.0 **** 0.0
10192 C 33.4858 3.75565 79.1177 C 0.0 **** 0.0
10193 C 34.4341 3.03654 78.3272 C 0.0 **** 0.0
10194 C 49.2268 10.1808 78.6018 C 0.0 **** 0.0
10195 C 48.5972 10.3436 77.2198 C 0.0 **** 0.0
10196 C 50.3968 12.8483 78.7847 C 0.0 **** 0.0
10197 C 46.8957 9.41649 80.3116 C 0.0 **** 0.0
10198 C 49.8544 14.4134 81.2102 C 0.0 **** 0.0
10199 C 46.4264 15.9854 84.4724 C 0.0 **** 0.0
10200 C 43.7839 15.623 85.8698 C 0.0 **** 0.0
10201 O 42.0721 13.6544 86.6104 O 0.0 **** 0.0
10202 C 37.8321 15.1239 83.6376 C 0.0 **** 0.0
10203 C 38.9542 13.9394 81.1809 C 0.0 **** 0.0
10204 O 37.6301 8.97578 83.5737 O 0.0 **** 0.0
10205 O 43.2421 8.66754 83.3734 O 0.0 **** 0.0
10206 O 42.8149 6.16279 84.129 O 0.0 **** 0.0
10207 O 37.7291 6.19116 83.2149 O 0.0 **** 0.0
10208 C 34.0558 2.56271 76.9403 C 0.0 **** 0.0
10209 C 31.9937 3.74544 78.8023 C 0.0 **** 0.0
10210 H 45.0116 11.4502 81.1163 H 0.0 **** 0.0
10211 H 45.7688 10.5996 82.555 H 0.0 **** 0.0
10212 H 48.0718 13.8861 83.3763 H 0.0 **** 0.0
10213 H 47.3121 14.9337 82.1445 H 0.0 **** 0.0
10214 H 43.3446 10.8115 82.4052 H 0.0 **** 0.0
10215 H 38.8677 11.329 81.9808 H 0.0 **** 0.0
10216 H 37.5394 12.122 82.9802 H 0.0 **** 0.0
10217 H 40.3921 13.2018 82.4736 H 0.0 **** 0.0
10218 H 39.9424 15.1105 83.6136 H 0.0 **** 0.0
10219 H 38.2878 13.5141 85.5253 H 0.0 **** 0.0
10220 H 39.8516 14.2992 85.8468 H 0.0 **** 0.0
10221 H 42.8741 3.8169 83.2652 H 0.0 **** 0.0
10222 H 41.3272 3.08692 83.8025 H 0.0 **** 0.0
10223 H 42.121 2.22036 81.7603 H 0.0 **** 0.0
10224 H 42.1246 3.91618 80.9489 H 0.0 **** 0.0
10225 H 41.4806 1.57792 79.265 H 0.0 **** 0.0
10226 H 41.1157 0.539241 80.7195 H 0.0 **** 0.0
10227 H 39.4086 -0.641045 79.7804 H 0.0 **** 0.0
10228 H 40.6682 -0.641038 78.5592 H 0.0 **** 0.0
10229 H 38.319 -0.271954 77.6283 H 0.0 **** 0.0
10230 H 39.2912 1.24791 77.2707 H 0.0 **** 0.0
10231 H 37.2771 0.602233 79.4933 H 0.0 **** 0.0
10232 H 37.3332 2.82557 77.38 H 0.0 **** 0.0
10233 H 36.3204 1.27243 77.3438 H 0.0 **** 0.0
10234 H 35.3906 4.5532 81.7559 H 0.0 **** 0.0
10235 H 33.164 4.89543 80.8955 H 0.0 **** 0.0
10236 H 48.9991 9.16246 78.8688 H 0.0 **** 0.0
10237 H 50.3176 10.2093 78.525 H 0.0 **** 0.0
10238 H 48.3936 11.361 76.9046 H 0.0 **** 0.0
10239 H 47.6782 9.69829 77.0501 H 0.0 **** 0.0
10240 H 49.309 9.91038 76.4946 H 0.0 **** 0.0
10241 H 50.1573 12.6523 77.6872 H 0.0 **** 0.0
10242 H 51.3461 12.3865 79.1371 H 0.0 **** 0.0
10243 H 50.4607 13.9511 78.7559 H 0.0 **** 0.0
10244 H 45.9299 9.31804 80.8296 H 0.0 **** 0.0
10245 H 47.5356 8.63385 80.7718 H 0.0 **** 0.0
10246 H 46.673 9.14033 79.2612 H 0.0 **** 0.0
10247 H 49.9361 14.6209 82.2548 H 0.0 **** 0.0
10248 H 49.4595 15.342 80.6935 H 0.0 **** 0.0
10249 H 50.8946 14.1801 80.8887 H 0.0 **** 0.0
10250 H 46.371 16.2451 85.5916 H 0.0 **** 0.0
10251 H 46.1042 16.8693 83.8229 H 0.0 **** 0.0
10252 H 47.5174 15.8794 84.3545 H 0.0 **** 0.0
10253 H 42.6604 15.8202 85.7786 H 0.0 **** 0.0
10254 H 44.2048 16.6405 85.7734 H 0.0 **** 0.0
10255 H 43.9899 15.3847 86.9824 H 0.0 **** 0.0
10256 H 41.2983 13.1726 87.1411 H 0.0 **** 0.0
10257 H 37.9039 15.9087 82.795 H 0.0 **** 0.0
10258 H 37.6647 15.6392 84.5771 H 0.0 **** 0.0
10259 H 36.9734 14.4816 83.2907 H 0.0 **** 0.0
10260 H 39.2716 13.2123 80.3852 H 0.0 **** 0.0
10261 H 39.5729 14.865 81.0886 H 0.0 **** 0.0
10262 H 37.8548 14.0599 81.0142 H 0.0 **** 0.0
10263 H 37.0756 8.33341 82.9981 H 0.0 **** 0.0
10264 H 43.5788 7.90388 82.8457 H 0.0 **** 0.0
10265 H 33.4661 3.41573 76.4858 H 0.0 **** 0.0
10266 H 33.3554 1.66878 77.045 H 0.0 **** 0.0
10267 H 34.8892 2.42866 76.218 H 0.0 **** 0.0
10268 H 31.6948 4.75466 78.5844 H 0.0 **** 0.0
10269 H 31.325 3.29393 79.5674 H 0.0 **** 0.0
10270 H 31.7409 3.14401 77.8948 H 0.0 **** 0.0
10271 C 82.5727 11.3873 62.0341 C 0.0 **** 0.0
10272 C 83.52 11.5787 61.0296 C 0.0 **** 0.0
10273 C 84.688 10.7927 60.954 C 0.0 **** 0.0
10274 C 84.8501 9.69063 61.7766 C 0.0 **** 0.0
10275 C 83.8399 9.42154 62.7397 C 0.0 **** 0.0
10276 C 82.7326 10.2962 62.9312 C 0.0 **** 0.0
10277 C 86.0585 8.81777 61.6651 C 0.0 **** 0.0
10278 C 87.2355 9.37746 60.9025 C 0.0 **** 0.0
10279 C 87.0535 10.5644 60.1355 C 0.0 **** 0.0
10280 C 85.7091 11.1568 59.9061 C 0.0 **** 0.0
10281 C 88.2115 11.1197 59.5314 C 0.0 **** 0.0
10282 C 89.4982 10.7044 59.9097 C 0.0 **** 0.0
10283 C 89.6769 9.45777 60.6322 C 0.0 **** 0.0
10284 C 88.5187 8.77618 61.0645 C 0.0 **** 0.0
10285 C 88.6756 7.50256 61.6379 C 0.0 **** 0.0
10286 C 89.9261 6.94071 61.9362 C 0.0 **** 0.0
10287 C 91.0571 7.77774 61.8063 C 0.0 **** 0.0
10288 C 90.9587 8.91273 60.9325 C 0.0 **** 0.0
10289 C 92.3625 7.48521 62.5936 C 0.0 **** 0.0
10290 C 92.1148 6.3605 63.6373 C 0.0 **** 0.0
10291 C 91.1931 5.24931 63.1161 C 0.0 **** 0.0
10292 C 90.0956 5.57703 62.3368 C 0.0 **** 0.0
10293 C 91.5802 6.8111 65.0254 C 0.0 **** 0.0
10294 C 91.0451 8.27451 65.0072 C 0.0 **** 0.0
10295 C 91.9935 9.2831 64.4239 C 0.0 **** 0.0
10296 C 92.9503 8.67705 63.3799 C 0.0 **** 0.0
10297 C 89.2477 4.56168 61.8493 C 0.0 **** 0.0
10298 C 89.5834 3.20579 62.1044 C 0.0 **** 0.0
10299 C 90.6987 2.89003 62.9349 C 0.0 **** 0.0
10300 C 91.4645 3.93144 63.5221 C 0.0 **** 0.0
10301 C 91.0024 1.44292 63.096 C 0.0 **** 0.0
10302 C 90.5139 0.415138 62.1179 C 0.0 **** 0.0
10303 C 89.5176 0.830314 61.2174 C 0.0 **** 0.0
10304 C 88.9137 2.15184 61.2988 C 0.0 **** 0.0
10305 C 89.1865 -0.0466097 60.0361 C 0.0 **** 0.0
10306 C 89.1739 -1.53757 60.4754 C 0.0 **** 0.0
10307 C 90.4536 -1.89341 61.2448 C 0.0 **** 0.0
10308 C 91.0293 -0.933041 62.0774 C 0.0 **** 0.0
10309 N 92.0374 -1.29649 62.9048 N 0.0 **** 0.0
10310 C 92.5455 -2.57209 62.9619 C 0.0 **** 0.0
10311 C 92.0518 -3.56449 62.1173 C 0.0 **** 0.0
10312 C 90.9907 -3.21688 61.2453 C 0.0 **** 0.0
10313 C 90.463 -4.21564 60.2532 C 0.0 **** 0.0
10314 C 91.2461 -5.50686 60.0994 C 0.0 **** 0.0
10315 C 91.7331 -6.04299 61.4862 C 0.0 **** 0.0
10316 C 92.602 -4.96286 62.1808 C 0.0 **** 0.0
10317 C 92.8946 -5.38325 63.6085 C 0.0 **** 0.0
10318 C 93.7599 -4.29677 64.2716 C 0.0 **** 0.0
10319 C 93.5497 -2.93995 63.8998 C 0.0 **** 0.0
10320 C 94.3354 -1.93352 64.4879 C 0.0 **** 0.0
10321 C 95.2807 -2.25278 65.4826 C 0.0 **** 0.0
10322 C 95.4015 -3.5691 65.9387 C 0.0 **** 0.0
10323 C 94.5591 -4.57882 65.4394 C 0.0 **** 0.0
10324 C 81.6478 9.98126 63.942 C 0.0 **** 0.0
10325 C 81.9003 10.5812 65.3149 C 0.0 **** 0.0
10326 C 81.4741 12.4084 62.243 C 0.0 **** 0.0
10327 C 83.8296 8.17887 63.5586 C 0.0 **** 0.0
10328 C 83.1852 12.5845 59.9238 C 0.0 **** 0.0
10329 C 88.038 12.1577 58.4194 C 0.0 **** 0.0
10330 C 90.6635 11.5931 59.514 C 0.0 **** 0.0
10331 O 92.1127 9.39243 60.3074 O 0.0 **** 0.0
10332 C 92.7985 10.1483 65.4445 C 0.0 **** 0.0
10333 C 90.4592 8.57809 66.3873 C 0.0 **** 0.0
10334 O 92.5463 3.79177 64.4111 O 0.0 **** 0.0
10335 O 88.1823 4.89862 60.9827 O 0.0 **** 0.0
10336 O 87.9098 2.37882 60.6297 O 0.0 **** 0.0
10337 O 91.6331 1.07426 64.0817 O 0.0 **** 0.0
10338 C 94.6306 -5.96808 66.0371 C 0.0 **** 0.0
10339 C 96.4229 -3.80402 67.0736 C 0.0 **** 0.0
10340 H 86.4582 8.62861 62.7097 H 0.0 **** 0.0
10341 H 85.7333 7.84931 61.1906 H 0.0 **** 0.0
10342 H 85.3543 10.8452 58.9016 H 0.0 **** 0.0
10343 H 85.8537 12.2587 59.9952 H 0.0 **** 0.0
10344 H 87.7817 6.96666 61.9924 H 0.0 **** 0.0
10345 H 90.7493 6.13938 65.315 H 0.0 **** 0.0
10346 H 92.4245 6.68207 65.7022 H 0.0 **** 0.0
10347 H 90.1624 8.28011 64.3458 H 0.0 **** 0.0
10348 H 91.3575 9.9525 63.838 H 0.0 **** 0.0
10349 H 93.9108 8.31619 63.8377 H 0.0 **** 0.0
10350 H 93.2256 9.49136 62.6537 H 0.0 **** 0.0
10351 H 88.2348 0.200687 59.549 H 0.0 **** 0.0
10352 H 89.9584 0.06831 59.2704 H 0.0 **** 0.0
10353 H 89.0336 -2.11107 59.569 H 0.0 **** 0.0
10354 H 88.3105 -1.77621 61.1291 H 0.0 **** 0.0
10355 H 89.3942 -4.5019 60.5182 H 0.0 **** 0.0
10356 H 90.3816 -3.72284 59.263 H 0.0 **** 0.0
10357 H 92.0507 -5.37073 59.3588 H 0.0 **** 0.0
10358 H 90.6112 -6.24705 59.6196 H 0.0 **** 0.0
10359 H 92.3194 -6.9546 61.2784 H 0.0 **** 0.0
10360 H 90.8803 -6.31471 62.1511 H 0.0 **** 0.0
10361 H 93.589 -4.95658 61.6284 H 0.0 **** 0.0
10362 H 91.9118 -5.52266 64.1845 H 0.0 **** 0.0
10363 H 93.4775 -6.35756 63.5924 H 0.0 **** 0.0
10364 H 94.2393 -0.873516 64.1612 H 0.0 **** 0.0
10365 H 95.9126 -1.50306 65.923 H 0.0 **** 0.0
10366 H 81.421 8.89073 63.9549 H 0.0 **** 0.0
10367 H 80.6667 10.392 63.6235 H 0.0 **** 0.0
10368 H 82.1965 11.7042 65.2852 H 0.0 **** 0.0
10369 H 82.701 10.0478 65.8054 H 0.0 **** 0.0
10370 H 81.0312 10.4573 65.9463 H 0.0 **** 0.0
10371 H 81.7581 13.3965 61.792 H 0.0 **** 0.0
10372 H 81.3691 12.6207 63.3451 H 0.0 **** 0.0
10373 H 80.5067 12.0815 61.7757 H 0.0 **** 0.0
10374 H 84.7383 7.55433 63.4447 H 0.0 **** 0.0
10375 H 83.0433 7.43608 63.224 H 0.0 **** 0.0
10376 H 83.7213 8.33262 64.6391 H 0.0 **** 0.0
10377 H 83.6964 12.3239 58.9687 H 0.0 **** 0.0
10378 H 83.4665 13.6281 60.2518 H 0.0 **** 0.0
10379 H 82.1399 12.623 59.6488 H 0.0 **** 0.0
10380 H 88.9017 12.2383 57.7805 H 0.0 **** 0.0
10381 H 87.8804 13.1534 58.8626 H 0.0 **** 0.0
10382 H 87.1546 12.0098 57.7922 H 0.0 **** 0.0
10383 H 91.3979 11.7289 60.3321 H 0.0 **** 0.0
10384 H 90.379 12.6121 59.3857 H 0.0 **** 0.0
10385 H 91.062 11.2452 58.5306 H 0.0 **** 0.0
10386 H 92.9016 8.78705 60.5255 H 0.0 **** 0.0
10387 H 92.1926 10.9047 65.98 H 0.0 **** 0.0
10388 H 93.5187 10.7751 64.9259 H 0.0 **** 0.0
10389 H 93.389 9.51038 66.1262 H 0.0 **** 0.0
10390 H 89.5692 7.95534 66.7055 H 0.0 **** 0.0
10391 H 90.1704 9.64909 66.4729 H 0.0 **** 0.0
10392 H 91.2093 8.36606 67.1314 H 0.0 **** 0.0
10393 H 92.5746 2.96011 64.9546 H 0.0 **** 0.0
10394 H 87.2911 4.54614 61.281 H 0.0 **** 0.0
10395 H 93.734 -6.57575 65.7577 H 0.0 **** 0.0
10396 H 94.694 -5.89673 67.0994 H 0.0 **** 0.0
10397 H 95.6023 -6.4322 65.671 H 0.0 **** 0.0
10398 H 95.9056 -4.26535 67.9531 H 0.0 **** 0.0
10399 H 96.977 -2.92835 67.4226 H 0.0 **** 0.0
10400 H 97.2184 -4.4923 66.7171 H 0.0 **** 0.0
10401 C 106.804 7.62878 40.8537 C 0.0 **** 0.0
10402 C 105.985 7.831 39.7286 C 0.0 **** 0.0
10403 C 104.561 7.75812 39.782 C 0.0 **** 0.0
10404 C 104.002 7.29138 40.9651 C 0.0 **** 0.0
10405 C 104.808 6.85447 42.0301 C 0.0 **** 0.0
10406 C 106.184 7.14104 42.0291 C 0.0 **** 0.0
10407 C 102.501 7.3229 41.1341 C 0.0 **** 0.0
10408 C 101.666 7.74848 39.9088 C 0.0 **** 0.0
10409 C 102.21 7.86504 38.6376 C 0.0 **** 0.0
10410 C 103.707 8.00352 38.5491 C 0.0 **** 0.0
10411 C 101.322 7.96596 37.5209 C 0.0 **** 0.0
10412 C 99.9328 7.80963 37.6416 C 0.0 **** 0.0
10413 C 99.4087 7.98899 38.9307 C 0.0 **** 0.0
10414 C 100.292 8.02853 40.0621 C 0.0 **** 0.0
10415 C 99.7884 8.32562 41.3153 C 0.0 **** 0.0
10416 C 98.3868 8.49154 41.4944 C 0.0 **** 0.0
10417 C 97.5283 8.17551 40.4464 C 0.0 **** 0.0
10418 C 97.9953 8.19189 39.1571 C 0.0 **** 0.0
10419 C 96.0858 7.7181 40.7413 C 0.0 **** 0.0
10420 C 95.7657 7.50226 42.2318 C 0.0 **** 0.0
10421 C 96.4796 8.43411 43.1772 C 0.0 **** 0.0
10422 C 97.752 8.96585 42.7364 C 0.0 **** 0.0
10423 C 94.275 7.28404 42.4479 C 0.0 **** 0.0
10424 C 93.5378 6.59294 41.2578 C 0.0 **** 0.0
10425 C 94.464 5.67653 40.5754 C 0.0 **** 0.0
10426 C 95.7184 6.39678 40.0047 C 0.0 **** 0.0
10427 C 98.4185 9.82752 43.6433 C 0.0 **** 0.0
10428 C 97.7791 10.3256 44.806 C 0.0 **** 0.0
10429 C 96.5561 9.72534 45.2302 C 0.0 **** 0.0
10430 C 96.0373 8.64792 44.5072 C 0.0 **** 0.0
10431 C 95.8094 10.3368 46.3622 C 0.0 **** 0.0
10432 C 96.2873 11.5799 47.037 C 0.0 **** 0.0
10433 C 97.3802 12.2508 46.5037 C 0.0 **** 0.0
10434 C 98.2344 11.5797 45.5072 C 0.0 **** 0.0
10435 C 97.692 13.6683 46.8474 C 0.0 **** 0.0
10436 C 97.0307 14.213 48.1278 C 0.0 **** 0.0
10437 C 95.7876 13.418 48.6121 C 0.0 **** 0.0
10438 C 95.5594 12.1263 48.1228 C 0.0 **** 0.0
10439 N 94.5046 11.4121 48.6119 N 0.0 **** 0.0
10440 C 93.5865 11.8658 49.4672 C 0.0 **** 0.0
10441 C 93.7493 13.1444 49.9585 C 0.0 **** 0.0
10442 C 94.8468 13.9407 49.5239 C 0.0 **** 0.0
10443 C 95.045 15.3086 50.1344 C 0.0 **** 0.0
10444 C 93.814 15.8912 50.8775 C 0.0 **** 0.0
10445 C 93.0628 14.8424 51.6715 C 0.0 **** 0.0
10446 C 92.6146 13.7367 50.7461 C 0.0 **** 0.0
10447 C 91.8839 12.6558 51.5427 C 0.0 **** 0.0
10448 C 91.3806 11.6185 50.5893 C 0.0 **** 0.0
10449 C 92.3606 11.1618 49.6816 C 0.0 **** 0.0
10450 C 92.11 9.99778 48.9146 C 0.0 **** 0.0
10451 C 90.8863 9.32917 49.0777 C 0.0 **** 0.0
10452 C 89.8442 9.86868 49.8304 C 0.0 **** 0.0
10453 C 90.0646 11.0615 50.5626 C 0.0 **** 0.0
10454 C 107.0 6.8502 43.2637 C 0.0 **** 0.0
10455 C 107.887 5.66433 43.0137 C 0.0 **** 0.0
10456 C 108.268 8.11014 40.8667 C 0.0 **** 0.0
10457 C 104.166 6.11064 43.1641 C 0.0 **** 0.0
10458 C 106.721 8.16118 38.4317 C 0.0 **** 0.0
10459 C 101.859 8.31277 36.1413 C 0.0 **** 0.0
10460 C 99.1276 7.31771 36.4785 C 0.0 **** 0.0
10461 O 97.1044 8.2356 38.0804 O 0.0 **** 0.0
10462 C 93.7577 4.83375 39.5515 C 0.0 **** 0.0
10463 C 92.7683 7.56855 40.415 C 0.0 **** 0.0
10464 O 95.0921 7.81585 45.0475 O 0.0 **** 0.0
10465 O 99.6709 10.2684 43.2881 O 0.0 **** 0.0
10466 O 99.2523 12.0809 45.1586 O 0.0 **** 0.0
10467 O 94.8263 9.73616 46.7849 O 0.0 **** 0.0
10468 C 88.9118 11.7276 51.3478 C 0.0 **** 0.0
10469 C 88.4372 9.29128 49.5613 C 0.0 **** 0.0
10470 H 102.128 6.31382 41.3362 H 0.0 **** 0.0
10471 H 102.348 7.94226 42.0094 H 0.0 **** 0.0
10472 H 103.868 9.04402 38.18 H 0.0 **** 0.0
10473 H 104.01 7.3509 37.6977 H 0.0 **** 0.0
10474 H 100.389 8.34497 42.1961 H 0.0 **** 0.0
10475 H 94.1995 6.58741 43.3107 H 0.0 **** 0.0
10476 H 93.7409 8.2328 42.7063 H 0.0 **** 0.0
10477 H 92.7005 6.03682 41.8067 H 0.0 **** 0.0
10478 H 94.9081 5.01926 41.3529 H 0.0 **** 0.0
10479 H 95.4683 6.54136 38.926 H 0.0 **** 0.0
10480 H 96.6125 5.69378 39.9165 H 0.0 **** 0.0
10481 H 98.8411 13.85 46.9537 H 0.0 **** 0.0
10482 H 97.4279 14.2875 45.9632 H 0.0 **** 0.0
10483 H 96.7767 15.2451 47.9342 H 0.0 **** 0.0
10484 H 97.8152 14.2251 48.8991 H 0.0 **** 0.0
10485 H 95.9266 15.2707 50.8066 H 0.0 **** 0.0
10486 H 95.3188 16.0074 49.3178 H 0.0 **** 0.0
10487 H 93.1279 16.4035 50.2153 H 0.0 **** 0.0
10488 H 94.1707 16.706 51.5229 H 0.0 **** 0.0
10489 H 92.1693 15.2198 52.1753 H 0.0 **** 0.0
10490 H 93.7366 14.3617 52.4036 H 0.0 **** 0.0
10491 H 91.8772 14.1548 49.9409 H 0.0 **** 0.0
10492 H 92.5602 12.1594 52.2403 H 0.0 **** 0.0
10493 H 91.0942 13.1488 52.1746 H 0.0 **** 0.0
10494 H 92.8141 9.57629 48.2422 H 0.0 **** 0.0
10495 H 90.7312 8.44451 48.4116 H 0.0 **** 0.0
10496 H 106.42 6.6184 44.1611 H 0.0 **** 0.0
10497 H 107.56 7.76477 43.5129 H 0.0 **** 0.0
10498 H 108.564 5.88433 42.2367 H 0.0 **** 0.0
10499 H 107.251 4.7612 42.7997 H 0.0 **** 0.0
10500 H 108.428 5.46809 43.9304 H 0.0 **** 0.0
10501 H 108.329 9.01133 40.2664 H 0.0 **** 0.0
10502 H 108.945 7.35206 40.4742 H 0.0 **** 0.0
10503 H 108.623 8.46792 41.838 H 0.0 **** 0.0
10504 H 104.776 5.20959 43.4409 H 0.0 **** 0.0
10505 H 103.205 5.62818 42.9314 H 0.0 **** 0.0
10506 H 104.088 6.73207 44.1037 H 0.0 **** 0.0
10507 H 107.781 7.96197 38.4872 H 0.0 **** 0.0
10508 H 106.557 9.18638 38.2157 H 0.0 **** 0.0
10509 H 106.351 7.40858 37.6197 H 0.0 **** 0.0
10510 H 101.099 8.6993 35.4049 H 0.0 **** 0.0
10511 H 102.332 7.38093 35.75 H 0.0 **** 0.0
10512 H 102.683 9.13499 36.2295 H 0.0 **** 0.0
10513 H 98.6012 6.40267 36.83 H 0.0 **** 0.0
10514 H 99.7355 6.91825 35.6129 H 0.0 **** 0.0
10515 H 98.4139 8.03911 36.1095 H 0.0 **** 0.0
10516 H 96.188 8.64011 38.2957 H 0.0 **** 0.0
10517 H 92.7083 4.62025 39.8773 H 0.0 **** 0.0
10518 H 94.3213 3.9322 39.4821 H 0.0 **** 0.0
10519 H 93.7108 5.32212 38.6142 H 0.0 **** 0.0
10520 H 91.9412 7.95056 41.0462 H 0.0 **** 0.0
10521 H 92.3687 7.17611 39.4915 H 0.0 **** 0.0
10522 H 93.396 8.44362 40.1196 H 0.0 **** 0.0
10523 H 95.2055 7.67608 46.0326 H 0.0 **** 0.0
10524 H 100.256 10.4106 44.1322 H 0.0 **** 0.0
10525 H 87.99 11.1383 51.2748 H 0.0 **** 0.0
10526 H 88.7642 12.7455 50.9113 H 0.0 **** 0.0
10527 H 89.1198 11.8175 52.4258 H 0.0 **** 0.0
10528 H 88.0226 9.07748 50.537 H 0.0 **** 0.0
10529 H 88.5163 8.40888 48.9069 H 0.0 **** 0.0
10530 H 87.83 10.0852 48.979 H 0.0 **** 0.0
10531 C 53.3733 33.1939 20.1691 C 0.0 **** 0.0
10532 C 54.1882 33.9371 21.0728 C 0.0 **** 0.0
10533 C 55.2211 34.8178 20.5636 C 0.0 **** 0.0
10534 C 55.4808 34.7917 19.183 C 0.0 **** 0.0
10535 C 54.7286 34.0167 18.2718 C 0.0 **** 0.0
10536 C 53.6167 33.2484 18.7794 C 0.0 **** 0.0
10537 C 56.7026 35.5098 18.6775 C 0.0 **** 0.0
10538 C 57.2922 36.5417 19.5539 C 0.0 **** 0.0
10539 C 56.732 36.8038 20.8217 C 0.0 **** 0.0
10540 C 55.9445 35.7377 21.4794 C 0.0 **** 0.0
10541 C 56.9961 38.0096 21.4671 C 0.0 **** 0.0
10542 C 57.6579 39.0855 20.7471 C 0.0 **** 0.0
10543 C 58.442 38.7054 19.6051 C 0.0 **** 0.0
10544 C 58.252 37.4389 19.0124 C 0.0 **** 0.0
10545 C 58.9779 37.0762 17.8868 C 0.0 **** 0.0
10546 C 59.9925 37.8513 17.3437 C 0.0 **** 0.0
10547 C 60.4345 38.9921 18.1104 C 0.0 **** 0.0
10548 C 59.5661 39.473 19.1353 C 0.0 **** 0.0
10549 C 61.7267 39.6602 17.6968 C 0.0 **** 0.0
10550 C 62.6194 38.7523 16.8233 C 0.0 **** 0.0
10551 C 61.8977 37.9005 15.7533 C 0.0 **** 0.0
10552 C 60.5853 37.4256 16.0987 C 0.0 **** 0.0
10553 C 63.7969 38.0187 17.5224 C 0.0 **** 0.0
10554 C 64.3667 38.7504 18.7703 C 0.0 **** 0.0
10555 C 64.0326 40.1949 18.787 C 0.0 **** 0.0
10556 C 62.4946 40.3882 18.8514 C 0.0 **** 0.0
10557 C 59.9546 36.4433 15.2153 C 0.0 **** 0.0
10558 C 60.7238 35.8678 14.1852 C 0.0 **** 0.0
10559 C 61.9457 36.4598 13.7634 C 0.0 **** 0.0
10560 C 62.5395 37.4981 14.556 C 0.0 **** 0.0
10561 C 62.5409 36.0321 12.4658 C 0.0 **** 0.0
10562 C 61.7666 35.1166 11.5509 C 0.0 **** 0.0
10563 C 60.6643 34.3921 12.098 C 0.0 **** 0.0
10564 C 60.1432 34.7324 13.4432 C 0.0 **** 0.0
10565 C 59.8104 33.5349 11.2065 C 0.0 **** 0.0
10566 C 59.5648 34.1759 9.87276 C 0.0 **** 0.0
10567 C 60.8836 34.6329 9.26936 C 0.0 **** 0.0
10568 C 61.9541 35.0593 10.1211 C 0.0 **** 0.0
10569 N 63.1036 35.5138 9.618 N 0.0 **** 0.0
10570 C 63.3289 35.6545 8.26378 C 0.0 **** 0.0
10571 C 62.2403 35.3481 7.39349 C 0.0 **** 0.0
10572 C 61.0333 34.8012 7.86595 C 0.0 **** 0.0
10573 C 59.9237 34.3276 6.9249 C 0.0 **** 0.0
10574 C 59.9487 35.0203 5.53367 C 0.0 **** 0.0
10575 C 61.3956 34.9436 5.01015 C 0.0 **** 0.0
10576 C 62.3358 35.802 5.9317 C 0.0 **** 0.0
10577 C 63.7237 35.7732 5.36661 C 0.0 **** 0.0
10578 C 64.7734 36.229 6.35364 C 0.0 **** 0.0
10579 C 64.5353 36.1496 7.74006 C 0.0 **** 0.0
10580 C 65.5885 36.448 8.61835 C 0.0 **** 0.0
10581 C 66.7536 37.0068 8.16264 C 0.0 **** 0.0
10582 C 66.9628 37.1974 6.78929 C 0.0 **** 0.0
10583 C 66.0431 36.657 5.88135 C 0.0 **** 0.0
10584 C 52.7071 32.5383 17.7118 C 0.0 **** 0.0
10585 C 53.1171 31.0829 17.55 C 0.0 **** 0.0
10586 C 52.2415 32.3126 20.7065 C 0.0 **** 0.0
10587 C 55.0647 33.926 16.8147 C 0.0 **** 0.0
10588 C 53.86 33.9168 22.5697 C 0.0 **** 0.0
10589 C 56.5713 38.1743 22.9471 C 0.0 **** 0.0
10590 C 57.5301 40.4645 21.2419 C 0.0 **** 0.0
10591 O 59.9176 40.6278 19.8629 O 0.0 **** 0.0
10592 C 64.6405 40.9927 17.619 C 0.0 **** 0.0
10593 C 65.8542 38.429 18.9635 C 0.0 **** 0.0
10594 O 63.8606 37.881 14.2646 O 0.0 **** 0.0
10595 O 58.5603 36.2398 15.2922 O 0.0 **** 0.0
10596 O 59.3127 34.0088 13.9381 O 0.0 **** 0.0
10597 O 63.7025 36.328 12.1604 O 0.0 **** 0.0
10598 C 66.6323 36.1985 4.53216 C 0.0 **** 0.0
10599 C 68.2332 37.8121 6.307 C 0.0 **** 0.0
10600 H 57.4537 34.7343 18.3959 H 0.0 **** 0.0
10601 H 56.3964 36.112 17.8116 H 0.0 **** 0.0
10602 H 55.1982 36.2191 22.125 H 0.0 **** 0.0
10603 H 56.6085 35.1762 22.1737 H 0.0 **** 0.0
10604 H 58.9207 36.0632 17.5467 H 0.0 **** 0.0
10605 H 63.5229 37.0405 17.8174 H 0.0 **** 0.0
10606 H 64.5507 37.9682 16.7526 H 0.0 **** 0.0
10607 H 63.9009 38.3709 19.687 H 0.0 **** 0.0
10608 H 64.4909 40.5897 19.7053 H 0.0 **** 0.0
10609 H 62.2904 41.4802 18.8925 H 0.0 **** 0.0
10610 H 62.188 39.8812 19.772 H 0.0 **** 0.0
10611 H 60.4803 32.6485 11.0138 H 0.0 **** 0.0
10612 H 58.8088 33.205 11.5885 H 0.0 **** 0.0
10613 H 58.9597 35.0956 10.0441 H 0.0 **** 0.0
10614 H 59.031 33.4615 9.22236 H 0.0 **** 0.0
10615 H 59.8967 33.2599 6.85134 H 0.0 **** 0.0
10616 H 58.9587 34.6961 7.3316 H 0.0 **** 0.0
10617 H 59.6109 36.0924 5.62714 H 0.0 **** 0.0
10618 H 59.2455 34.6251 4.76443 H 0.0 **** 0.0
10619 H 61.4834 35.3436 3.98722 H 0.0 **** 0.0
10620 H 61.6802 33.8957 4.93894 H 0.0 **** 0.0
10621 H 61.9575 36.8415 5.9799 H 0.0 **** 0.0
10622 H 63.9463 34.743 5.07239 H 0.0 **** 0.0
10623 H 63.7418 36.4253 4.44285 H 0.0 **** 0.0
10624 H 65.4823 36.3359 9.66885 H 0.0 **** 0.0
10625 H 67.568 37.2189 8.87374 H 0.0 **** 0.0
10626 H 52.625 33.0323 16.7317 H 0.0 **** 0.0
10627 H 51.6895 32.579 18.0933 H 0.0 **** 0.0
10628 H 52.326 30.4847 17.1719 H 0.0 **** 0.0
10629 H 53.4167 30.626 18.5239 H 0.0 **** 0.0
10630 H 53.9569 30.9658 16.8657 H 0.0 **** 0.0
10631 H 51.3931 32.9752 21.0157 H 0.0 **** 0.0
10632 H 52.6742 31.7445 21.5743 H 0.0 **** 0.0
10633 H 51.8192 31.6102 20.0103 H 0.0 **** 0.0
10634 H 54.2868 34.4309 16.195 H 0.0 **** 0.0
10635 H 55.2271 32.8966 16.5061 H 0.0 **** 0.0
10636 H 55.9774 34.4388 16.5335 H 0.0 **** 0.0
10637 H 53.9261 32.8724 22.9016 H 0.0 **** 0.0
10638 H 52.8116 34.1997 22.7316 H 0.0 **** 0.0
10639 H 54.5513 34.519 23.2297 H 0.0 **** 0.0
10640 H 55.484 38.2561 22.9913 H 0.0 **** 0.0
10641 H 56.9583 39.105 23.3698 H 0.0 **** 0.0
10642 H 56.939 37.356 23.5166 H 0.0 **** 0.0
10643 H 58.3284 40.6392 22.0282 H 0.0 **** 0.0
10644 H 56.5381 40.6152 21.7282 H 0.0 **** 0.0
10645 H 57.5766 41.167 20.4138 H 0.0 **** 0.0
10646 H 60.1674 41.3823 19.2554 H 0.0 **** 0.0
10647 H 65.69 41.1913 17.8819 H 0.0 **** 0.0
10648 H 64.2378 42.0183 17.4696 H 0.0 **** 0.0
10649 H 64.5899 40.5131 16.6441 H 0.0 **** 0.0
10650 H 65.9927 37.3528 19.0245 H 0.0 **** 0.0
10651 H 66.3022 38.8125 19.9261 H 0.0 **** 0.0
10652 H 66.4719 38.8509 18.1527 H 0.0 **** 0.0
10653 H 64.1764 38.7281 14.6934 H 0.0 **** 0.0
10654 H 58.0801 35.8346 14.4891 H 0.0 **** 0.0
10655 H 66.9031 37.0817 3.95532 H 0.0 **** 0.0
10656 H 65.9295 35.6436 3.94406 H 0.0 **** 0.0
10657 H 67.5132 35.591 4.73093 H 0.0 **** 0.0
10658 H 68.9878 36.9955 6.28885 H 0.0 **** 0.0
10659 H 68.599 38.5666 7.04335 H 0.0 **** 0.0
10660 H 68.1323 38.3157 5.33746 H 0.0 **** 0.0
10661 C 1.20591 100.438 27.2898 C 0.0 **** 0.0
10662 C 1.4249 99.5996 28.4205 C 0.0 **** 0.0
10663 C 2.73566 99.3783 28.8719 C 0.0 **** 0.0
10664 C 3.82665 100.017 28.2699 C 0.0 **** 0.0
10665 C 3.61838 100.989 27.2319 C 0.0 **** 0.0
10666 C 2.28959 101.243 26.7843 C 0.0 **** 0.0
10667 C 5.22997 99.8819 28.863 C 0.0 **** 0.0
10668 C 5.45274 98.6249 29.6718 C 0.0 **** 0.0
10669 C 4.36823 97.8255 30.0353 C 0.0 **** 0.0
10670 C 3.03719 98.5001 30.0734 C 0.0 **** 0.0
10671 C 4.50137 96.5467 30.6285 C 0.0 **** 0.0
10672 C 5.81093 96.0614 30.8768 C 0.0 **** 0.0
10673 C 6.94133 96.7953 30.4086 C 0.0 **** 0.0
10674 C 6.74744 98.0867 29.8679 C 0.0 **** 0.0
10675 C 7.84427 98.8713 29.5056 C 0.0 **** 0.0
10676 C 9.17 98.3663 29.4249 C 0.0 **** 0.0
10677 C 9.32639 97.014 29.7886 C 0.0 **** 0.0
10678 C 8.24098 96.2123 30.2851 C 0.0 **** 0.0
10679 C 10.6723 96.4259 29.631 C 0.0 **** 0.0
10680 C 11.7448 97.3916 30.134 C 0.0 **** 0.0
10681 C 11.5458 98.8039 29.6045 C 0.0 **** 0.0
10682 C 10.3004 99.1678 29.1286 C 0.0 **** 0.0
10683 C 13.1808 96.8284 29.8482 C 0.0 **** 0.0
10684 C 13.3291 96.5044 28.373 C 0.0 **** 0.0
10685 C 12.3477 95.4636 27.9501 C 0.0 **** 0.0
10686 C 10.9018 95.9969 28.1572 C 0.0 **** 0.0
10687 C 10.1816 100.348 28.3641 C 0.0 **** 0.0
10688 C 11.2902 101.237 28.1605 C 0.0 **** 0.0
10689 C 12.5187 100.945 28.7763 C 0.0 **** 0.0
10690 C 12.5998 99.7805 29.6561 C 0.0 **** 0.0
10691 C 13.7249 101.77 28.4339 C 0.0 **** 0.0
10692 C 13.5604 103.148 27.952 C 0.0 **** 0.0
10693 C 12.2353 103.527 27.5313 C 0.0 **** 0.0
10694 C 11.2035 102.498 27.3166 C 0.0 **** 0.0
10695 C 11.9069 105.008 27.4768 C 0.0 **** 0.0
10696 C 13.1054 105.804 27.0561 C 0.0 **** 0.0
10697 C 14.317 105.446 27.8835 C 0.0 **** 0.0
10698 C 14.5795 104.1 28.1392 C 0.0 **** 0.0
10699 N 15.8196 103.749 28.6235 N 0.0 **** 0.0
10700 C 16.8075 104.649 28.8297 C 0.0 **** 0.0
10701 C 16.5073 106.027 28.8012 C 0.0 **** 0.0
10702 C 15.1909 106.43 28.4079 C 0.0 **** 0.0
10703 C 14.7826 107.908 28.5768 C 0.0 **** 0.0
10704 C 15.6478 108.736 29.4977 C 0.0 **** 0.0
10705 C 17.1498 108.452 29.2848 C 0.0 **** 0.0
10706 C 17.4816 106.958 29.442 C 0.0 **** 0.0
10707 C 18.8539 106.657 28.8835 C 0.0 **** 0.0
10708 C 19.1936 105.18 29.1771 C 0.0 **** 0.0
10709 C 18.1326 104.245 29.1191 C 0.0 **** 0.0
10710 C 18.3973 102.881 29.3247 C 0.0 **** 0.0
10711 C 19.623 102.472 29.8387 C 0.0 **** 0.0
10712 C 20.6774 103.391 29.8881 C 0.0 **** 0.0
10713 C 20.5059 104.762 29.5429 C 0.0 **** 0.0
10714 C 2.05599 102.267 25.6385 C 0.0 **** 0.0
10715 C 2.47466 101.684 24.2402 C 0.0 **** 0.0
10716 C -0.196248 100.482 26.6726 C 0.0 **** 0.0
10717 C 4.83288 101.636 26.5619 C 0.0 **** 0.0
10718 C 0.217678 98.9249 29.1194 C 0.0 **** 0.0
10719 C 3.29078 95.7638 31.0227 C 0.0 **** 0.0
10720 C 5.95648 94.7871 31.7224 C 0.0 **** 0.0
10721 O 8.44664 94.8544 30.6365 O 0.0 **** 0.0
10722 C 12.4768 94.0654 28.6084 C 0.0 **** 0.0
10723 C 14.7824 96.1631 28.0767 C 0.0 **** 0.0
10724 O 13.6053 99.7084 30.5929 O 0.0 **** 0.0
10725 O 8.95399 100.528 27.5931 O 0.0 **** 0.0
10726 O 10.3527 102.649 26.4468 O 0.0 **** 0.0
10727 O 14.8454 101.243 28.5432 O 0.0 **** 0.0
10728 C 21.6144 105.802 29.669 C 0.0 **** 0.0
10729 C 22.0194 102.891 30.3854 C 0.0 **** 0.0
10730 H 5.99069 99.8753 28.0339 H 0.0 **** 0.0
10731 H 5.43679 100.778 29.4811 H 0.0 **** 0.0
10732 H 3.01469 99.1105 31.0365 H 0.0 **** 0.0
10733 H 2.21054 97.7909 30.2141 H 0.0 **** 0.0
10734 H 7.6786 99.9265 29.453 H 0.0 **** 0.0
10735 H 13.9989 97.4813 30.1604 H 0.0 **** 0.0
10736 H 13.3137 95.9083 30.4101 H 0.0 **** 0.0
10737 H 13.0301 97.4473 27.7683 H 0.0 **** 0.0
10738 H 12.4818 95.3436 26.8341 H 0.0 **** 0.0
10739 H 10.2032 95.2086 27.9027 H 0.0 **** 0.0
10740 H 10.713 96.8282 27.444 H 0.0 **** 0.0
10741 H 11.1433 105.257 26.692 H 0.0 **** 0.0
10742 H 11.5436 105.331 28.459 H 0.0 **** 0.0
10743 H 12.9048 106.887 27.0745 H 0.0 **** 0.0
10744 H 13.3569 105.6 25.9863 H 0.0 **** 0.0
10745 H 14.8326 108.399 27.6206 H 0.0 **** 0.0
10746 H 13.7812 107.937 29.0359 H 0.0 **** 0.0
10747 H 15.3616 108.51 30.538 H 0.0 **** 0.0
10748 H 15.533 109.84 29.2955 H 0.0 **** 0.0
10749 H 17.7618 109.02 30.0356 H 0.0 **** 0.0
10750 H 17.4528 108.815 28.2688 H 0.0 **** 0.0
10751 H 17.5745 106.705 30.5071 H 0.0 **** 0.0
10752 H 18.9234 106.814 27.7711 H 0.0 **** 0.0
10753 H 19.5975 107.346 29.3028 H 0.0 **** 0.0
10754 H 17.5995 102.165 29.2135 H 0.0 **** 0.0
10755 H 19.766 101.43 30.0732 H 0.0 **** 0.0
10756 H 2.55096 103.218 25.8882 H 0.0 **** 0.0
10757 H 0.993816 102.561 25.675 H 0.0 **** 0.0
10758 H 2.16388 100.593 24.2948 H 0.0 **** 0.0
10759 H 3.55398 101.851 23.9699 H 0.0 **** 0.0
10760 H 1.91752 102.099 23.3784 H 0.0 **** 0.0
10761 H -0.286942 100.876 25.654 H 0.0 **** 0.0
10762 H -0.889957 100.982 27.3352 H 0.0 **** 0.0
10763 H -0.583786 99.4662 26.5948 H 0.0 **** 0.0
10764 H 5.40772 100.946 25.9148 H 0.0 **** 0.0
10765 H 5.55267 102.029 27.3514 H 0.0 **** 0.0
10766 H 4.54289 102.508 25.9676 H 0.0 **** 0.0
10767 H 0.258711 97.8038 29.0111 H 0.0 **** 0.0
10768 H -0.776232 99.2165 28.775 H 0.0 **** 0.0
10769 H 0.225304 99.2274 30.2199 H 0.0 **** 0.0
10770 H 2.80491 96.3042 31.8403 H 0.0 **** 0.0
10771 H 3.46153 94.6851 31.2325 H 0.0 **** 0.0
10772 H 2.5817 95.6791 30.1843 H 0.0 **** 0.0
10773 H 5.84 93.8647 31.1093 H 0.0 **** 0.0
10774 H 5.22014 94.8212 32.5283 H 0.0 **** 0.0
10775 H 6.87018 94.846 32.3311 H 0.0 **** 0.0
10776 H 9.41367 94.6278 30.7866 H 0.0 **** 0.0
10777 H 13.5212 93.816 28.6028 H 0.0 **** 0.0
10778 H 11.9016 93.346 27.9872 H 0.0 **** 0.0
10779 H 12.0817 94.0459 29.6526 H 0.0 **** 0.0
10780 H 15.4243 97.0055 28.2504 H 0.0 **** 0.0
10781 H 14.8751 95.8146 27.0252 H 0.0 **** 0.0
10782 H 15.0753 95.3707 28.7633 H 0.0 **** 0.0
10783 H 14.1622 100.518 30.6904 H 0.0 **** 0.0
10784 H 8.68483 101.537 27.4521 H 0.0 **** 0.0
10785 H 21.7454 106.374 28.7294 H 0.0 **** 0.0
10786 H 22.6108 105.396 29.9761 H 0.0 **** 0.0
10787 H 21.3054 106.542 30.4136 H 0.0 **** 0.0
10788 H 22.6726 102.867 29.5613 H 0.0 **** 0.0
10789 H 21.924 101.882 30.8353 H 0.0 **** 0.0
10790 H 22.4094 103.528 31.1976 H 0.0 **** 0.0
10791 C 32.3006 55.1075 87.0231 C 0.0 **** 0.0
10792 C 32.9103 54.1282 87.9345 C 0.0 **** 0.0
10793 C 32.7527 54.3242 89.3169 C 0.0 **** 0.0
10794 C 32.0923 55.4689 89.8034 C 0.0 **** 0.0
10795 C 31.2718 56.2298 88.9321 C 0.0 **** 0.0
10796 C 31.3317 56.0048 87.5348 C 0.0 **** 0.0
10797 C 32.3451 55.8786 91.2303 C 0.0 **** 0.0
10798 C 32.1003 54.7415 92.1256 C 0.0 **** 0.0
10799 C 32.434 53.4409 91.6716 C 0.0 **** 0.0
10800 C 33.2128 53.2961 90.3641 C 0.0 **** 0.0
10801 C 32.1376 52.3214 92.4429 C 0.0 **** 0.0
10802 C 31.2713 52.4909 93.5235 C 0.0 **** 0.0
10803 C 30.7571 53.7841 93.8664 C 0.0 **** 0.0
10804 C 31.3331 54.9244 93.2905 C 0.0 **** 0.0
10805 C 31.0542 56.2253 93.8031 C 0.0 **** 0.0
10806 C 30.0812 56.4219 94.7466 C 0.0 **** 0.0
10807 C 29.5387 55.273 95.3554 C 0.0 **** 0.0
10808 C 29.7076 53.9938 94.7627 C 0.0 **** 0.0
10809 C 28.8342 55.4303 96.705 C 0.0 **** 0.0
10810 C 28.8823 56.8434 97.2926 C 0.0 **** 0.0
10811 C 28.8187 57.8589 96.248 C 0.0 **** 0.0
10812 C 29.5706 57.7221 95.0517 C 0.0 **** 0.0
10813 C 30.0002 57.1348 98.3452 C 0.0 **** 0.0
10814 C 31.1735 56.1476 98.0698 C 0.0 **** 0.0
10815 C 30.7412 54.7608 98.3166 C 0.0 **** 0.0
10816 C 29.2623 54.477 97.784 C 0.0 **** 0.0
10817 C 29.8774 58.9095 94.3348 C 0.0 **** 0.0
10818 C 29.4784 60.1969 94.8556 C 0.0 **** 0.0
10819 C 28.5648 60.2488 95.914 C 0.0 **** 0.0
10820 C 28.2492 59.0834 96.6115 C 0.0 **** 0.0
10821 C 27.8002 61.4899 96.159 C 0.0 **** 0.0
10822 C 28.2865 62.7352 95.5074 C 0.0 **** 0.0
10823 C 29.4185 62.7731 94.679 C 0.0 **** 0.0
10824 C 30.0313 61.4574 94.2959 C 0.0 **** 0.0
10825 C 30.0523 64.0658 94.1529 C 0.0 **** 0.0
10826 C 29.0812 65.2568 94.1576 C 0.0 **** 0.0
10827 C 28.2318 65.2296 95.4106 C 0.0 **** 0.0
10828 C 27.7671 63.9662 95.9378 C 0.0 **** 0.0
10829 N 26.9915 63.9567 97.0324 N 0.0 **** 0.0
10830 C 26.6014 65.079 97.6893 C 0.0 **** 0.0
10831 C 26.9608 66.3532 97.1733 C 0.0 **** 0.0
10832 C 27.7571 66.4328 96.0239 C 0.0 **** 0.0
10833 C 28.0292 67.7408 95.3286 C 0.0 **** 0.0
10834 C 27.3428 68.9721 95.9094 C 0.0 **** 0.0
10835 C 27.0468 68.8517 97.4027 C 0.0 **** 0.0
10836 C 26.2667 67.5602 97.6983 C 0.0 **** 0.0
10837 C 26.0659 67.3979 99.2048 C 0.0 **** 0.0
10838 C 25.3854 66.0548 99.5409 C 0.0 **** 0.0
10839 C 25.7215 64.8979 98.7693 C 0.0 **** 0.0
10840 C 25.052 63.6443 99.0233 C 0.0 **** 0.0
10841 C 24.0787 63.6004 100.045 C 0.0 **** 0.0
10842 C 23.8329 64.6919 100.899 C 0.0 **** 0.0
10843 C 24.4945 65.9106 100.663 C 0.0 **** 0.0
10844 C 30.3746 56.6495 86.5625 C 0.0 **** 0.0
10845 C 30.6508 58.0901 86.2334 C 0.0 **** 0.0
10846 C 32.6186 55.058 85.5237 C 0.0 **** 0.0
10847 C 30.1609 57.0552 89.5676 C 0.0 **** 0.0
10848 C 33.6622 52.9704 87.4354 C 0.0 **** 0.0
10849 C 32.7231 50.9601 92.1121 C 0.0 **** 0.0
10850 C 30.8471 51.2817 94.358 C 0.0 **** 0.0
10851 O 28.7557 53.0095 94.9569 O 0.0 **** 0.0
10852 C 30.7628 54.3124 99.8003 C 0.0 **** 0.0
10853 C 32.4231 56.5792 98.8786 C 0.0 **** 0.0
10854 O 27.4323 59.103 97.7465 O 0.0 **** 0.0
10855 O 30.383 58.8948 93.0172 O 0.0 **** 0.0
10856 O 31.0297 61.4191 93.5843 O 0.0 **** 0.0
10857 O 26.7467 61.446 96.7037 O 0.0 **** 0.0
10858 C 24.097 67.1033 101.526 C 0.0 **** 0.0
10859 C 22.7816 64.6138 101.999 C 0.0 **** 0.0
10860 H 33.3852 56.1887 91.2849 H 0.0 **** 0.0
10861 H 31.835 56.8253 91.5086 H 0.0 **** 0.0
10862 H 32.9913 52.3041 89.9302 H 0.0 **** 0.0
10863 H 34.3033 53.4322 90.5426 H 0.0 **** 0.0
10864 H 31.714 57.0181 93.5868 H 0.0 **** 0.0
10865 H 30.4157 58.1517 98.2472 H 0.0 **** 0.0
10866 H 29.5823 57.0369 99.3732 H 0.0 **** 0.0
10867 H 31.447 56.2069 96.9916 H 0.0 **** 0.0
10868 H 31.4243 54.0982 97.7902 H 0.0 **** 0.0
10869 H 28.5012 54.6767 98.6291 H 0.0 **** 0.0
10870 H 29.2188 53.4029 97.5165 H 0.0 **** 0.0
10871 H 30.9309 64.2272 94.8216 H 0.0 **** 0.0
10872 H 30.4519 63.8929 93.1232 H 0.0 **** 0.0
10873 H 28.4236 65.1397 93.2534 H 0.0 **** 0.0
10874 H 29.665 66.1655 93.994 H 0.0 **** 0.0
10875 H 29.1324 67.952 95.3038 H 0.0 **** 0.0
10876 H 27.7232 67.7465 94.2673 H 0.0 **** 0.0
10877 H 26.424 69.1922 95.3032 H 0.0 **** 0.0
10878 H 27.9633 69.8617 95.8227 H 0.0 **** 0.0
10879 H 26.4294 69.7142 97.7376 H 0.0 **** 0.0
10880 H 27.9908 68.8577 97.9807 H 0.0 **** 0.0
10881 H 25.2838 67.6133 97.1948 H 0.0 **** 0.0
10882 H 27.0596 67.4735 99.7589 H 0.0 **** 0.0
10883 H 25.4495 68.2864 99.5329 H 0.0 **** 0.0
10884 H 25.1633 62.729 98.44 H 0.0 **** 0.0
10885 H 23.507 62.6758 100.183 H 0.0 **** 0.0
10886 H 29.3655 56.5004 86.9576 H 0.0 **** 0.0
10887 H 30.2904 56.102 85.5954 H 0.0 **** 0.0
10888 H 31.599 58.2597 85.7365 H 0.0 **** 0.0
10889 H 30.7181 58.7369 87.1357 H 0.0 **** 0.0
10890 H 29.9087 58.3977 85.5151 H 0.0 **** 0.0
10891 H 32.4595 56.0451 85.0043 H 0.0 **** 0.0
10892 H 31.941 54.2732 85.0974 H 0.0 **** 0.0
10893 H 33.6725 54.8322 85.3815 H 0.0 **** 0.0
10894 H 30.6378 57.9575 90.0635 H 0.0 **** 0.0
10895 H 29.6581 56.3788 90.3339 H 0.0 **** 0.0
10896 H 29.3877 57.4041 88.8112 H 0.0 **** 0.0
10897 H 33.819 52.9586 86.3392 H 0.0 **** 0.0
10898 H 33.0299 52.0543 87.5508 H 0.0 **** 0.0
10899 H 34.6405 52.8519 87.9612 H 0.0 **** 0.0
10900 H 31.926 50.3636 91.6917 H 0.0 **** 0.0
10901 H 33.1613 50.4942 93.028 H 0.0 **** 0.0
10902 H 33.617 50.9446 91.5148 H 0.0 **** 0.0
10903 H 30.5358 51.552 95.3911 H 0.0 **** 0.0
10904 H 31.5993 50.4775 94.4263 H 0.0 **** 0.0
10905 H 29.9733 50.8701 93.8896 H 0.0 **** 0.0
10906 H 27.928 53.3004 95.4742 H 0.0 **** 0.0
10907 H 31.8218 54.1964 100.18 H 0.0 **** 0.0
10908 H 30.2538 53.3102 99.9364 H 0.0 **** 0.0
10909 H 30.2198 55.0331 100.534 H 0.0 **** 0.0
10910 H 32.7165 57.5875 98.4808 H 0.0 **** 0.0
10911 H 33.2953 55.9052 98.681 H 0.0 **** 0.0
10912 H 32.216 56.6291 99.9596 H 0.0 **** 0.0
10913 H 27.5737 59.9414 98.3095 H 0.0 **** 0.0
10914 H 29.9948 58.2092 92.3779 H 0.0 **** 0.0
10915 H 24.825 67.9103 101.477 H 0.0 **** 0.0
10916 H 24.0431 66.805 102.621 H 0.0 **** 0.0
10917 H 23.1415 67.5306 101.134 H 0.0 **** 0.0
10918 H 23.2371 64.7641 102.992 H 0.0 **** 0.0
10919 H 22.293 63.6284 101.971 H 0.0 **** 0.0
10920 H 22.0277 65.3935 101.843 H 0.0 **** 0.0
10921 C 92.098 41.9956 4.44197 C 0.0 **** 0.0
10922 C 91.3903 42.7505 5.43902 C 0.0 **** 0.0
10923 C 91.3484 44.1305 5.30982 C 0.0 **** 0.0
10924 C 92.0133 44.7462 4.21996 C 0.0 **** 0.0
10925 C 92.5726 44.0015 3.17371 C 0.0 **** 0.0
10926 C 92.6625 42.593 3.28621 C 0.0 **** 0.0
10927 C 92.1994 46.2414 4.1684 C 0.0 **** 0.0
10928 C 91.6116 47.0741 5.32126 C 0.0 **** 0.0
10929 C 90.8344 46.4567 6.31515 C 0.0 **** 0.0
10930 C 90.6813 44.9624 6.37449 C 0.0 **** 0.0
10931 C 90.2901 47.2704 7.38329 C 0.0 **** 0.0
10932 C 90.5904 48.6506 7.44442 C 0.0 **** 0.0
10933 C 91.5654 49.1984 6.54169 C 0.0 **** 0.0
10934 C 92.0461 48.4123 5.46609 C 0.0 **** 0.0
10935 C 93.0459 48.9288 4.61849 C 0.0 **** 0.0
10936 C 93.7561 50.1063 4.92865 C 0.0 **** 0.0
10937 C 93.4903 50.7422 6.11161 C 0.0 **** 0.0
10938 C 92.2807 50.4365 6.80861 C 0.0 **** 0.0
10939 C 94.5553 51.6585 6.79289 C 0.0 **** 0.0
10940 C 95.9223 51.5055 6.0827 C 0.0 **** 0.0
10941 C 95.7405 51.4143 4.58695 C 0.0 **** 0.0
10942 C 94.7383 50.5951 4.03946 C 0.0 **** 0.0
10943 C 96.7712 50.3 6.67769 C 0.0 **** 0.0
10944 C 96.799 50.2394 8.23972 C 0.0 **** 0.0
10945 C 96.0886 51.3407 8.92057 C 0.0 **** 0.0
10946 C 94.6684 51.4266 8.316 C 0.0 **** 0.0
10947 C 94.7816 50.3023 2.64474 C 0.0 **** 0.0
10948 C 95.8362 50.8026 1.8582 C 0.0 **** 0.0
10949 C 96.656 51.833 2.40182 C 0.0 **** 0.0
10950 C 96.6961 52.0474 3.80237 C 0.0 **** 0.0
10951 C 97.2393 52.8281 1.4015 C 0.0 **** 0.0
10952 C 97.1769 52.5569 -0.0999686 C 0.0 **** 0.0
10953 C 96.774 51.2601 -0.480884 C 0.0 **** 0.0
10954 C 96.0729 50.3771 0.446922 C 0.0 **** 0.0
10955 C 96.8653 50.8305 -1.95261 C 0.0 **** 0.0
10956 C 97.8621 51.7105 -2.734 C 0.0 **** 0.0
10957 C 97.6141 53.1514 -2.43782 C 0.0 **** 0.0
10958 C 97.5179 53.5335 -1.08503 C 0.0 **** 0.0
10959 N 97.602 54.8572 -0.717504 N 0.0 **** 0.0
10960 C 97.731 55.8765 -1.62807 C 0.0 **** 0.0
10961 C 97.764 55.5459 -3.0063 C 0.0 **** 0.0
10962 C 97.7198 54.1851 -3.44356 C 0.0 **** 0.0
10963 C 97.749 53.8464 -4.91756 C 0.0 **** 0.0
10964 C 97.5427 55.0214 -5.82024 C 0.0 **** 0.0
10965 C 98.2827 56.2987 -5.41249 C 0.0 **** 0.0
10966 C 97.8509 56.7008 -3.99919 C 0.0 **** 0.0
10967 C 98.7296 57.8689 -3.48197 C 0.0 **** 0.0
10968 C 98.3735 58.2155 -2.00451 C 0.0 **** 0.0
10969 C 97.8754 57.2216 -1.15453 C 0.0 **** 0.0
10970 C 97.6234 57.5378 0.217768 C 0.0 **** 0.0
10971 C 97.8343 58.8288 0.663861 C 0.0 **** 0.0
10972 C 98.4514 59.8145 -0.135685 C 0.0 **** 0.0
10973 C 98.6566 59.5403 -1.4979 C 0.0 **** 0.0
10974 C 93.2785 41.8072 2.11635 C 0.0 **** 0.0
10975 C 94.7928 41.4809 2.31587 C 0.0 **** 0.0
10976 C 91.9778 40.4996 4.53786 C 0.0 **** 0.0
10977 C 92.9965 44.6716 1.84712 C 0.0 **** 0.0
10978 C 90.7431 42.0591 6.61098 C 0.0 **** 0.0
10979 C 89.4195 46.6108 8.47881 C 0.0 **** 0.0
10980 C 89.7972 49.5854 8.37764 C 0.0 **** 0.0
10981 O 91.7243 51.3653 7.66452 O 0.0 **** 0.0
10982 C 96.8218 52.6397 8.89884 C 0.0 **** 0.0
10983 C 98.1383 49.8794 8.83939 C 0.0 **** 0.0
10984 O 97.7631 52.7202 4.41286 O 0.0 **** 0.0
10985 O 93.7471 49.6167 1.97972 O 0.0 **** 0.0
10986 O 95.9138 49.1934 0.139682 O 0.0 **** 0.0
10987 O 97.7486 53.8719 1.80122 O 0.0 **** 0.0
10988 C 99.2904 60.6095 -2.42037 C 0.0 **** 0.0
10989 C 98.6553 61.1953 0.471852 C 0.0 **** 0.0
10990 H 93.3426 46.3562 4.16793 H 0.0 **** 0.0
10991 H 91.6616 46.545 3.25186 H 0.0 **** 0.0
10992 H 89.66 44.7373 6.35709 H 0.0 **** 0.0
10993 H 91.095 44.6576 7.34295 H 0.0 **** 0.0
10994 H 93.377 48.3924 3.80275 H 0.0 **** 0.0
10995 H 96.4053 49.3606 6.31045 H 0.0 **** 0.0
10996 H 97.7843 50.3965 6.2803 H 0.0 **** 0.0
10997 H 96.285 49.2872 8.49618 H 0.0 **** 0.0
10998 H 95.9682 51.0346 9.98824 H 0.0 **** 0.0
10999 H 94.0445 52.2148 8.78504 H 0.0 **** 0.0
11000 H 94.2096 50.4292 8.53656 H 0.0 **** 0.0
11001 H 97.111 49.7164 -2.00256 H 0.0 **** 0.0
11002 H 95.8466 51.0232 -2.39572 H 0.0 **** 0.0
11003 H 97.6826 51.3986 -3.84892 H 0.0 **** 0.0
11004 H 98.8531 51.3812 -2.39762 H 0.0 **** 0.0
11005 H 98.7406 53.3526 -5.19139 H 0.0 **** 0.0
11006 H 96.9647 53.1492 -5.12358 H 0.0 **** 0.0
11007 H 96.4695 55.2158 -5.82789 H 0.0 **** 0.0
11008 H 97.8687 54.8394 -6.91033 H 0.0 **** 0.0
11009 H 98.1348 57.1579 -6.11388 H 0.0 **** 0.0
11010 H 99.3719 56.0724 -5.42357 H 0.0 **** 0.0
11011 H 96.7666 57.1268 -4.0017 H 0.0 **** 0.0
11012 H 99.8169 57.573 -3.51129 H 0.0 **** 0.0
11013 H 98.5673 58.7109 -4.12581 H 0.0 **** 0.0
11014 H 97.1504 56.8072 0.840798 H 0.0 **** 0.0
11015 H 97.5301 59.1125 1.69015 H 0.0 **** 0.0
11016 H 93.1919 42.2965 1.11666 H 0.0 **** 0.0
11017 H 92.6408 40.9061 1.93585 H 0.0 **** 0.0
11018 H 94.9418 40.9234 3.24829 H 0.0 **** 0.0
11019 H 95.3533 42.4382 2.4719 H 0.0 **** 0.0
11020 H 95.2725 40.9568 1.54128 H 0.0 **** 0.0
11021 H 92.0899 40.1214 5.53196 H 0.0 **** 0.0
11022 H 92.723 39.951 3.91956 H 0.0 **** 0.0
11023 H 90.9977 40.1798 4.14972 H 0.0 **** 0.0
11024 H 94.0544 44.4003 1.65717 H 0.0 **** 0.0
11025 H 93.0868 45.8013 1.8593 H 0.0 **** 0.0
11026 H 92.2767 44.3669 1.01124 H 0.0 **** 0.0
11027 H 90.1619 42.7287 7.26789 H 0.0 **** 0.0
11028 H 91.559 41.5084 7.1934 H 0.0 **** 0.0
11029 H 90.0526 41.2913 6.26485 H 0.0 **** 0.0
11030 H 88.3943 47.0303 8.43328 H 0.0 **** 0.0
11031 H 89.8542 46.9304 9.47026 H 0.0 **** 0.0
11032 H 89.2995 45.5252 8.61091 H 0.0 **** 0.0
11033 H 90.4778 50.0395 9.16536 H 0.0 **** 0.0
11034 H 88.9428 49.0525 8.87012 H 0.0 **** 0.0
11035 H 89.3436 50.3543 7.71054 H 0.0 **** 0.0
11036 H 92.1226 52.2629 7.60372 H 0.0 **** 0.0
11037 H 97.749 52.5055 9.55808 H 0.0 **** 0.0
11038 H 96.2127 53.4449 9.30263 H 0.0 **** 0.0
11039 H 97.1991 53.024 7.92771 H 0.0 **** 0.0
11040 H 98.5448 48.9894 8.31473 H 0.0 **** 0.0
11041 H 98.0661 49.6129 9.93356 H 0.0 **** 0.0
11042 H 98.8223 50.7448 8.72255 H 0.0 **** 0.0
11043 H 98.533 52.8992 3.75147 H 0.0 **** 0.0
11044 H 93.5159 49.8217 1.00997 H 0.0 **** 0.0
11045 H 100.329 60.267 -2.65632 H 0.0 **** 0.0
11046 H 99.4766 61.5888 -1.98396 H 0.0 **** 0.0
11047 H 98.6495 60.7589 -3.35656 H 0.0 **** 0.0
11048 H 99.7626 61.466 0.328832 H 0.0 **** 0.0
11049 H 98.4892 61.316 1.59897 H 0.0 **** 0.0
11050 H 98.0977 61.9601 -0.0903889 H 0.0 **** 0.0
11051 C 92.1974 88.1014 95.1445 C 0.0 **** 0.0
11052 C 92.4331 86.8532 94.5148 C 0.0 **** 0.0
11053 C 91.7534 85.7109 94.9828 C 0.0 **** 0.0
11054 C 90.9308 85.7249 96.0968 C 0.0 **** 0.0
11055 C 90.8092 86.9177 96.8369 C 0.0 **** 0.0
11056 C 91.3545 88.136 96.3005 C 0.0 **** 0.0
11057 C 90.315 84.4138 96.6285 C 0.0 **** 0.0
11058 C 90.2231 83.2519 95.6652 C 0.0 **** 0.0
11059 C 91.0265 83.2337 94.5148 C 0.0 **** 0.0
11060 C 91.9645 84.365 94.238 C 0.0 **** 0.0
11061 C 90.8194 82.2391 93.5118 C 0.0 **** 0.0
11062 C 89.9208 81.1983 93.8035 C 0.0 **** 0.0
11063 C 89.0413 81.2425 94.9092 C 0.0 **** 0.0
11064 C 89.2892 82.215 95.9303 C 0.0 **** 0.0
11065 C 88.672 82.004 97.1573 C 0.0 **** 0.0
11066 C 87.8035 80.957 97.3779 C 0.0 **** 0.0
11067 C 87.3313 80.2043 96.2924 C 0.0 **** 0.0
11068 C 87.9642 80.3559 95.0205 C 0.0 **** 0.0
11069 C 86.35 79.0768 96.4894 C 0.0 **** 0.0
11070 C 85.5663 79.1156 97.8543 C 0.0 **** 0.0
11071 C 86.1607 80.0291 98.9171 C 0.0 **** 0.0
11072 C 87.384 80.7083 98.6783 C 0.0 **** 0.0
11073 C 85.2623 77.6869 98.4516 C 0.0 **** 0.0
11074 C 85.0064 76.686 97.3535 C 0.0 **** 0.0
11075 C 86.1925 76.5535 96.4811 C 0.0 **** 0.0
11076 C 87.1317 77.7641 96.4186 C 0.0 **** 0.0
11077 C 88.0857 81.1922 99.8416 C 0.0 **** 0.0
11078 C 87.3952 81.3564 101.027 C 0.0 **** 0.0
11079 C 86.0653 80.9345 101.196 C 0.0 **** 0.0
11080 C 85.4693 80.232 100.137 C 0.0 **** 0.0
11081 C 85.4016 81.1005 102.551 C 0.0 **** 0.0
11082 C 86.1679 81.6297 103.741 C 0.0 **** 0.0
11083 C 87.4547 82.092 103.515 C 0.0 **** 0.0
11084 C 88.0139 82.1126 102.138 C 0.0 **** 0.0
11085 C 88.2588 82.7226 104.562 C 0.0 **** 0.0
11086 C 87.9922 82.1533 105.951 C 0.0 **** 0.0
11087 C 86.5659 81.7776 106.2 C 0.0 **** 0.0
11088 C 85.7243 81.508 105.097 C 0.0 **** 0.0
11089 N 84.4264 81.0909 105.324 N 0.0 **** 0.0
11090 C 83.8643 80.9298 106.587 C 0.0 **** 0.0
11091 C 84.7004 81.1725 107.713 C 0.0 **** 0.0
11092 C 86.0668 81.5606 107.49 C 0.0 **** 0.0
11093 C 87.0105 81.788 108.649 C 0.0 **** 0.0
11094 C 86.4346 81.3961 110.061 C 0.0 **** 0.0
11095 C 85.1474 80.5607 110.041 C 0.0 **** 0.0
11096 C 84.1371 81.191 109.083 C 0.0 **** 0.0
11097 C 82.7697 80.4703 109.217 C 0.0 **** 0.0
11098 C 81.8713 80.5963 107.998 C 0.0 **** 0.0
11099 C 82.4511 80.8477 106.734 C 0.0 **** 0.0
11100 C 81.6526 80.9046 105.601 C 0.0 **** 0.0
11101 C 80.3147 80.7518 105.656 C 0.0 **** 0.0
11102 C 79.6672 80.5042 106.858 C 0.0 **** 0.0
11103 C 80.4552 80.3631 108.053 C 0.0 **** 0.0
11104 C 91.0267 89.4336 96.9918 C 0.0 **** 0.0
11105 C 92.0034 89.7196 98.1161 C 0.0 **** 0.0
11106 C 92.7585 89.3846 94.5491 C 0.0 **** 0.0
11107 C 90.0381 86.867 98.1637 C 0.0 **** 0.0
11108 C 93.3104 86.723 93.2638 C 0.0 **** 0.0
11109 C 91.2951 82.4585 92.0772 C 0.0 **** 0.0
11110 C 90.0059 79.9572 92.9753 C 0.0 **** 0.0
11111 O 87.4892 79.6886 93.8828 O 0.0 **** 0.0
11112 C 85.8623 76.156 95.0555 C 0.0 **** 0.0
11113 C 83.6449 77.0314 96.694 C 0.0 **** 0.0
11114 O 84.1824 79.7201 100.31 O 0.0 **** 0.0
11115 O 89.5048 81.3026 99.8612 O 0.0 **** 0.0
11116 O 88.8175 82.9573 101.889 O 0.0 **** 0.0
11117 O 84.2549 80.6999 102.709 O 0.0 **** 0.0
11118 C 79.7385 80.0318 109.368 C 0.0 **** 0.0
11119 C 78.1864 80.2507 106.814 C 0.0 **** 0.0
11120 H 90.823 84.0814 97.5465 H 0.0 **** 0.0
11121 H 89.2739 84.6322 96.8922 H 0.0 **** 0.0
11122 H 91.9072 84.6356 93.1804 H 0.0 **** 0.0
11123 H 92.9771 83.9804 94.5653 H 0.0 **** 0.0
11124 H 88.7569 82.7266 97.9388 H 0.0 **** 0.0
11125 H 86.1361 77.2958 99.0283 H 0.0 **** 0.0
11126 H 84.465 77.6526 99.2108 H 0.0 **** 0.0
11127 H 84.8718 75.706 97.8578 H 0.0 **** 0.0
11128 H 86.7559 75.6838 96.8508 H 0.0 **** 0.0
11129 H 87.7805 77.6826 95.5007 H 0.0 **** 0.0
11130 H 87.8612 77.7792 97.2558 H 0.0 **** 0.0
11131 H 89.3493 82.607 104.417 H 0.0 **** 0.0
11132 H 88.056 83.8234 104.567 H 0.0 **** 0.0
11133 H 88.2819 82.9883 106.614 H 0.0 **** 0.0
11134 H 88.6348 81.3064 106.155 H 0.0 **** 0.0
11135 H 87.9425 81.1534 108.453 H 0.0 **** 0.0
11136 H 87.2694 82.849 108.648 H 0.0 **** 0.0
11137 H 86.1697 82.3514 110.593 H 0.0 **** 0.0
11138 H 87.2413 80.834 110.628 H 0.0 **** 0.0
11139 H 84.7442 80.5401 111.028 H 0.0 **** 0.0
11140 H 85.4289 79.5404 109.718 H 0.0 **** 0.0
11141 H 84.0164 82.2803 109.399 H 0.0 **** 0.0
11142 H 82.861 79.4037 109.387 H 0.0 **** 0.0
11143 H 82.2052 80.9237 110.125 H 0.0 **** 0.0
11144 H 82.0508 81.1373 104.65 H 0.0 **** 0.0
11145 H 79.7151 80.8772 104.71 H 0.0 **** 0.0
11146 H 90.046 89.4453 97.5093 H 0.0 **** 0.0
11147 H 90.9969 90.2568 96.2437 H 0.0 **** 0.0
11148 H 91.8664 88.9972 98.965 H 0.0 **** 0.0
11149 H 91.7796 90.7535 98.4605 H 0.0 **** 0.0
11150 H 93.0718 89.6111 97.7904 H 0.0 **** 0.0
11151 H 91.9499 89.9449 93.9601 H 0.0 **** 0.0
11152 H 93.6373 89.3622 93.8806 H 0.0 **** 0.0
11153 H 93.1353 90.0608 95.378 H 0.0 **** 0.0
11154 H 88.9751 86.5378 98.081 H 0.0 **** 0.0
11155 H 90.0237 87.7875 98.8173 H 0.0 **** 0.0
11156 H 90.5096 86.0646 98.7823 H 0.0 **** 0.0
11157 H 93.9502 85.8393 93.3168 H 0.0 **** 0.0
11158 H 93.9684 87.4992 93.0445 H 0.0 **** 0.0
11159 H 92.5983 86.5874 92.448 H 0.0 **** 0.0
11160 H 92.4166 82.3865 92.0224 H 0.0 **** 0.0
11161 H 90.8617 83.3909 91.7244 H 0.0 **** 0.0
11162 H 90.9975 81.6882 91.3874 H 0.0 **** 0.0
11163 H 89.318 80.0163 92.139 H 0.0 **** 0.0
11164 H 89.7508 79.0707 93.6573 H 0.0 **** 0.0
11165 H 91.0626 79.7319 92.6525 H 0.0 **** 0.0
11166 H 86.5706 79.1977 94.0032 H 0.0 **** 0.0
11167 H 85.1654 75.3367 95.1002 H 0.0 **** 0.0
11168 H 86.7278 75.7724 94.4736 H 0.0 **** 0.0
11169 H 85.4272 76.9719 94.4137 H 0.0 **** 0.0
11170 H 82.8883 77.5379 97.3609 H 0.0 **** 0.0
11171 H 83.0607 76.1002 96.4069 H 0.0 **** 0.0
11172 H 83.7828 77.6264 95.7608 H 0.0 **** 0.0
11173 H 83.6304 79.6067 99.4632 H 0.0 **** 0.0
11174 H 89.9145 80.6462 99.2164 H 0.0 **** 0.0
11175 H 79.573 80.9911 109.885 H 0.0 **** 0.0
11176 H 80.3236 79.295 109.976 H 0.0 **** 0.0
11177 H 78.7688 79.5667 109.192 H 0.0 **** 0.0
11178 H 77.9987 79.1651 107.044 H 0.0 **** 0.0
11179 H 77.7016 80.5441 105.853 H 0.0 **** 0.0
11180 H 77.6526 80.8757 107.578 H 0.0 **** 0.0
11181 C 65.881 7.06936 64.351 C 0.0 **** 0.0
11182 C 64.6685 6.29494 64.3165 C 0.0 **** 0.0
11183 C 63.4943 6.72075 64.9217 C 0.0 **** 0.0
11184 C 63.4627 8.00526 65.4996 C 0.0 **** 0.0
11185 C 64.5883 8.84615 65.5137 C 0.0 **** 0.0
11186 C 65.8117 8.38393 64.953 C 0.0 **** 0.0
11187 C 62.1548 8.57335 66.0565 C 0.0 **** 0.0
11188 C 61.0324 7.59217 66.2844 C 0.0 **** 0.0
11189 C 61.1303 6.29126 65.7985 C 0.0 **** 0.0
11190 C 62.1977 5.9578 64.7716 C 0.0 **** 0.0
11191 C 60.2668 5.28631 66.3315 C 0.0 **** 0.0
11192 C 59.3511 5.60868 67.3376 C 0.0 **** 0.0
11193 C 59.1627 6.99241 67.7304 C 0.0 **** 0.0
11194 C 59.9898 7.97091 67.1293 C 0.0 **** 0.0
11195 C 59.7554 9.32717 67.467 C 0.0 **** 0.0
11196 C 58.7731 9.68871 68.4609 C 0.0 **** 0.0
11197 C 58.0677 8.69013 69.1334 C 0.0 **** 0.0
11198 C 58.1185 7.36927 68.5939 C 0.0 **** 0.0
11199 C 57.16 8.94092 70.3254 C 0.0 **** 0.0
11200 C 57.4689 10.3388 70.925 C 0.0 **** 0.0
11201 C 57.7961 11.4167 69.9277 C 0.0 **** 0.0
11202 C 58.4436 11.0811 68.7462 C 0.0 **** 0.0
11203 C 58.3417 10.291 72.2397 C 0.0 **** 0.0
11204 C 57.9154 9.27489 73.312 C 0.0 **** 0.0
11205 C 56.9176 8.35848 72.8035 C 0.0 **** 0.0
11206 C 57.2928 7.84731 71.4063 C 0.0 **** 0.0
11207 C 58.6337 12.1482 67.7515 C 0.0 **** 0.0
11208 C 58.3649 13.51 68.0459 C 0.0 **** 0.0
11209 C 57.7373 13.8243 69.2736 C 0.0 **** 0.0
11210 C 57.3393 12.764 70.124 C 0.0 **** 0.0
11211 C 57.5654 15.24 69.6287 C 0.0 **** 0.0
11212 C 57.4944 16.2335 68.5617 C 0.0 **** 0.0
11213 C 58.1348 15.973 67.3313 C 0.0 **** 0.0
11214 C 58.8197 14.6738 67.1949 C 0.0 **** 0.0
11215 C 58.0473 16.9878 66.1575 C 0.0 **** 0.0
11216 C 58.0538 18.4288 66.7584 C 0.0 **** 0.0
11217 C 57.0651 18.5476 67.8809 C 0.0 **** 0.0
11218 C 56.8676 17.4713 68.746 C 0.0 **** 0.0
11219 N 56.0195 17.6048 69.779 N 0.0 **** 0.0
11220 C 55.3351 18.7496 70.0917 C 0.0 **** 0.0
11221 C 55.5547 19.8708 69.2825 C 0.0 **** 0.0
11222 C 56.407 19.7424 68.1379 C 0.0 **** 0.0
11223 C 56.7746 20.9502 67.3172 C 0.0 **** 0.0
11224 C 56.0871 22.2391 67.7175 C 0.0 **** 0.0
11225 C 55.8388 22.3376 69.2355 C 0.0 **** 0.0
11226 C 54.946 21.1785 69.6168 C 0.0 **** 0.0
11227 C 54.5612 21.3275 71.1272 C 0.0 **** 0.0
11228 C 54.1269 20.0591 71.7983 C 0.0 **** 0.0
11229 C 54.5642 18.7944 71.2602 C 0.0 **** 0.0
11230 C 54.2851 17.6029 71.962 C 0.0 **** 0.0
11231 C 53.3994 17.6452 73.0576 C 0.0 **** 0.0
11232 C 52.7859 18.8588 73.4456 C 0.0 **** 0.0
11233 C 53.3018 20.0719 72.9656 C 0.0 **** 0.0
11234 C 67.0171 9.30623 64.8767 C 0.0 **** 0.0
11235 C 67.771 9.35374 66.2123 C 0.0 **** 0.0
11236 C 67.1337 6.54432 63.7129 C 0.0 **** 0.0
11237 C 64.4363 10.1879 66.2415 C 0.0 **** 0.0
11238 C 64.6595 4.99777 63.526 C 0.0 **** 0.0
11239 C 60.2835 3.92016 65.679 C 0.0 **** 0.0
11240 C 58.7933 4.47163 68.1997 C 0.0 **** 0.0
11241 O 57.0119 6.54651 68.7215 O 0.0 **** 0.0
11242 C 55.4479 8.89633 72.8426 C 0.0 **** 0.0
11243 C 57.5199 10.0281 74.5829 C 0.0 **** 0.0
11244 O 56.4219 13.0062 71.1557 O 0.0 **** 0.0
11245 O 58.6684 11.7593 66.3951 O 0.0 **** 0.0
11246 O 59.7572 14.5657 66.4183 O 0.0 **** 0.0
11247 O 57.6869 15.5948 70.7812 O 0.0 **** 0.0
11248 C 52.8068 21.4127 73.5217 C 0.0 **** 0.0
11249 C 51.6418 18.7547 74.3519 C 0.0 **** 0.0
11250 H 62.3762 9.06759 67.0264 H 0.0 **** 0.0
11251 H 61.752 9.37806 65.4019 H 0.0 **** 0.0
11252 H 61.7986 6.077 63.7244 H 0.0 **** 0.0
11253 H 62.5123 4.9215 64.9321 H 0.0 **** 0.0
11254 H 60.2656 10.1136 66.9938 H 0.0 **** 0.0
11255 H 59.3991 10.0112 71.9695 H 0.0 **** 0.0
11256 H 58.4105 11.3323 72.6701 H 0.0 **** 0.0
11257 H 58.7915 8.67408 73.7174 H 0.0 **** 0.0
11258 H 56.9546 7.48225 73.4395 H 0.0 **** 0.0
11259 H 56.7251 6.85878 71.2749 H 0.0 **** 0.0
11260 H 58.3493 7.4139 71.3946 H 0.0 **** 0.0
11261 H 58.965 16.8884 65.5161 H 0.0 **** 0.0
11262 H 57.0754 16.8659 65.621 H 0.0 **** 0.0
11263 H 57.8613 19.079 65.8562 H 0.0 **** 0.0
11264 H 59.0777 18.5988 67.1906 H 0.0 **** 0.0
11265 H 57.9071 21.1246 67.312 H 0.0 **** 0.0
11266 H 56.5563 20.7549 66.2668 H 0.0 **** 0.0
11267 H 55.121 22.4303 67.1989 H 0.0 **** 0.0
11268 H 56.7251 23.062 67.4609 H 0.0 **** 0.0
11269 H 55.3509 23.3066 69.4809 H 0.0 **** 0.0
11270 H 56.8285 22.2976 69.7818 H 0.0 **** 0.0
11271 H 54.0152 21.3285 69.0318 H 0.0 **** 0.0
11272 H 55.4626 21.67 71.6662 H 0.0 **** 0.0
11273 H 53.7381 22.0856 71.224 H 0.0 **** 0.0
11274 H 54.5098 16.5949 71.6028 H 0.0 **** 0.0
11275 H 53.0547 16.6541 73.441 H 0.0 **** 0.0
11276 H 66.7859 10.3564 64.6451 H 0.0 **** 0.0
11277 H 67.6848 9.07071 64.028 H 0.0 **** 0.0
11278 H 68.2185 8.35244 66.5044 H 0.0 **** 0.0
11279 H 67.1655 9.72559 67.0418 H 0.0 **** 0.0
11280 H 68.506 10.18 66.0808 H 0.0 **** 0.0
11281 H 67.2362 5.52813 63.9991 H 0.0 **** 0.0
11282 H 68.0575 6.98566 64.1128 H 0.0 **** 0.0
11283 H 67.1054 6.68041 62.6408 H 0.0 **** 0.0
11284 H 64.4011 10.0234 67.3405 H 0.0 **** 0.0
11285 H 63.5446 10.8049 65.9332 H 0.0 **** 0.0
11286 H 65.3016 10.8142 66.1326 H 0.0 **** 0.0
11287 H 64.6842 4.14566 64.2753 H 0.0 **** 0.0
11288 H 65.5049 4.95139 62.8088 H 0.0 **** 0.0
11289 H 63.7383 4.89582 62.9594 H 0.0 **** 0.0
11290 H 59.2721 3.44288 65.792 H 0.0 **** 0.0
11291 H 61.034 3.24579 66.1252 H 0.0 **** 0.0
11292 H 60.3939 4.02009 64.5621 H 0.0 **** 0.0
11293 H 59.0146 4.62068 69.2669 H 0.0 **** 0.0
11294 H 59.3466 3.48073 67.9881 H 0.0 **** 0.0
11295 H 57.7025 4.33162 67.9754 H 0.0 **** 0.0
11296 H 56.1393 7.06229 68.8161 H 0.0 **** 0.0
11297 H 55.0092 9.00089 73.8489 H 0.0 **** 0.0
11298 H 54.8292 8.13762 72.2941 H 0.0 **** 0.0
11299 H 55.457 9.88638 72.3699 H 0.0 **** 0.0
11300 H 58.4097 10.5325 74.9784 H 0.0 **** 0.0
11301 H 57.151 9.29738 75.3635 H 0.0 **** 0.0
11302 H 56.7493 10.8411 74.429 H 0.0 **** 0.0
11303 H 55.8353 13.8203 71.0114 H 0.0 **** 0.0
11304 H 59.2171 12.3526 65.7751 H 0.0 **** 0.0
11305 H 53.7034 22.031 73.6252 H 0.0 **** 0.0
11306 H 52.2243 21.2363 74.455 H 0.0 **** 0.0
11307 H 52.1421 21.9598 72.8233 H 0.0 **** 0.0
11308 H 50.8671 19.4604 74.042 H 0.0 **** 0.0
11309 H 51.9404 18.8449 75.3927 H 0.0 **** 0.0
11310 H 51.1232 17.7656 74.2441 H 0.0 **** 0.0
11311 C 83.2268 8.99073 22.1896 C 0.0 **** 0.0
11312 C 83.077 8.02254 23.1742 C 0.0 **** 0.0
11313 C 83.9566 7.99683 24.2629 C 0.0 **** 0.0
11314 C 84.6926 9.12786 24.5149 C 0.0 **** 0.0
11315 C 84.6908 10.2696 23.6316 C 0.0 **** 0.0
11316 C 83.9667 10.1837 22.4577 C 0.0 **** 0.0
11317 C 85.5878 9.20021 25.7805 C 0.0 **** 0.0
11318 C 85.8912 7.9209 26.5058 C 0.0 **** 0.0
11319 C 85.1908 6.76335 26.2268 C 0.0 **** 0.0
11320 C 83.9949 6.8396 25.2561 C 0.0 **** 0.0
11321 C 85.539 5.58551 26.9669 C 0.0 **** 0.0
11322 C 86.6201 5.55039 27.8901 C 0.0 **** 0.0
11323 C 87.2593 6.78574 28.2094 C 0.0 **** 0.0
11324 C 86.9117 7.9554 27.5053 C 0.0 **** 0.0
11325 C 87.5048 9.22899 27.8423 C 0.0 **** 0.0
11326 C 88.4119 9.37709 28.9086 C 0.0 **** 0.0
11327 C 88.9345 8.21533 29.4474 C 0.0 **** 0.0
11328 C 88.2696 6.95789 29.2251 C 0.0 **** 0.0
11329 C 90.2942 8.25844 30.1657 C 0.0 **** 0.0
11330 C 90.9724 9.66488 29.9991 C 0.0 **** 0.0
11331 C 90.0506 10.7943 30.0442 C 0.0 **** 0.0
11332 C 88.8266 10.6813 29.3951 C 0.0 **** 0.0
11333 C 91.8956 9.79798 28.7512 C 0.0 **** 0.0
11334 C 91.8166 8.59266 27.8315 C 0.0 **** 0.0
11335 C 92.1784 7.34588 28.5406 C 0.0 **** 0.0
11336 C 91.4357 7.15903 29.9192 C 0.0 **** 0.0
11337 C 87.9417 11.774 29.3511 C 0.0 **** 0.0
11338 C 88.4055 13.0604 29.658 C 0.0 **** 0.0
11339 C 89.6733 13.2075 30.2435 C 0.0 **** 0.0
11340 C 90.4811 12.0491 30.4641 C 0.0 **** 0.0
11341 C 90.227 14.5562 30.5174 C 0.0 **** 0.0
11342 C 89.3649 15.7532 30.4025 C 0.0 **** 0.0
11343 C 88.0901 15.5644 29.8582 C 0.0 **** 0.0
11344 C 87.6343 14.2664 29.3287 C 0.0 **** 0.0
11345 C 87.1341 16.7485 29.8044 C 0.0 **** 0.0
11346 C 87.9514 17.9454 29.3329 C 0.0 **** 0.0
11347 C 89.1747 18.158 30.1743 C 0.0 **** 0.0
11348 C 89.8335 17.0123 30.7405 C 0.0 **** 0.0
11349 N 90.8003 17.1617 31.6671 N 0.0 **** 0.0
11350 C 91.1788 18.4048 32.1069 C 0.0 **** 0.0
11351 C 90.5298 19.5695 31.5759 C 0.0 **** 0.0
11352 C 89.6476 19.4973 30.482 C 0.0 **** 0.0
11353 C 89.0195 20.7628 29.8921 C 0.0 **** 0.0
11354 C 89.952 21.9472 30.1028 C 0.0 **** 0.0
11355 C 90.2129 22.1717 31.5797 C 0.0 **** 0.0
11356 C 90.7676 20.8921 32.3023 C 0.0 **** 0.0
11357 C 92.2743 21.0189 32.5459 C 0.0 **** 0.0
11358 C 92.6571 19.8349 33.4671 C 0.0 **** 0.0
11359 C 92.1629 18.5558 33.1497 C 0.0 **** 0.0
11360 C 92.6608 17.4309 33.8198 C 0.0 **** 0.0
11361 C 93.5972 17.5983 34.832 C 0.0 **** 0.0
11362 C 94.1234 18.8721 35.1862 C 0.0 **** 0.0
11363 C 93.6891 19.9985 34.4275 C 0.0 **** 0.0
11364 C 83.86 11.3705 21.4999 C 0.0 **** 0.0
11365 C 85.1413 11.6126 20.716 C 0.0 **** 0.0
11366 C 82.5 8.77133 20.8839 C 0.0 **** 0.0
11367 C 85.4513 11.5129 24.0268 C 0.0 **** 0.0
11368 C 81.9232 7.07906 23.1801 C 0.0 **** 0.0
11369 C 84.5773 4.44771 26.8942 C 0.0 **** 0.0
11370 C 87.0489 4.22696 28.4897 C 0.0 **** 0.0
11371 O 88.4635 5.88835 30.1077 O 0.0 **** 0.0
11372 C 93.6924 7.16328 28.8252 C 0.0 **** 0.0
11373 C 92.5164 8.77932 26.4981 C 0.0 **** 0.0
11374 O 91.7128 12.1756 31.1702 O 0.0 **** 0.0
11375 O 86.5719 11.5287 29.2815 O 0.0 **** 0.0
11376 O 86.6717 14.1774 28.6013 O 0.0 **** 0.0
11377 O 91.4308 14.674 30.655 O 0.0 **** 0.0
11378 C 94.3643 21.3299 34.6417 C 0.0 **** 0.0
11379 C 95.0812 19.0038 36.3818 C 0.0 **** 0.0
11380 H 86.5746 9.61451 25.3932 H 0.0 **** 0.0
11381 H 85.132 9.92111 26.4827 H 0.0 **** 0.0
11382 H 83.0322 6.83043 25.8339 H 0.0 **** 0.0
11383 H 84.0773 5.90533 24.6381 H 0.0 **** 0.0
11384 H 87.3489 10.1218 27.2653 H 0.0 **** 0.0
11385 H 91.7218 10.733 28.1528 H 0.0 **** 0.0
11386 H 92.8942 9.95115 29.1883 H 0.0 **** 0.0
11387 H 90.7517 8.47426 27.5772 H 0.0 **** 0.0
11388 H 91.9218 6.4716 27.9156 H 0.0 **** 0.0
11389 H 92.1882 7.20647 30.7592 H 0.0 **** 0.0
11390 H 91.0654 6.11937 29.9211 H 0.0 **** 0.0
11391 H 86.3222 16.6059 29.076 H 0.0 **** 0.0
11392 H 86.5921 16.8211 30.7788 H 0.0 **** 0.0
11393 H 87.2681 18.7972 29.4218 H 0.0 **** 0.0
11394 H 88.2609 17.8517 28.2906 H 0.0 **** 0.0
11395 H 88.929 20.6605 28.8519 H 0.0 **** 0.0
11396 H 88.0256 20.9661 30.3749 H 0.0 **** 0.0
11397 H 89.4965 22.8333 29.6155 H 0.0 **** 0.0
11398 H 90.9148 21.7021 29.5915 H 0.0 **** 0.0
11399 H 89.2797 22.469 32.0969 H 0.0 **** 0.0
11400 H 90.9627 22.9891 31.6108 H 0.0 **** 0.0
11401 H 90.3006 20.8405 33.2974 H 0.0 **** 0.0
11402 H 92.8096 21.0063 31.5985 H 0.0 **** 0.0
11403 H 92.434 21.992 33.0176 H 0.0 **** 0.0
11404 H 92.4502 16.4474 33.5084 H 0.0 **** 0.0
11405 H 93.9982 16.713 35.3345 H 0.0 **** 0.0
11406 H 83.613 12.3002 22.0964 H 0.0 **** 0.0
11407 H 82.9938 11.2776 20.7967 H 0.0 **** 0.0
11408 H 85.3207 10.7746 20.0242 H 0.0 **** 0.0
11409 H 85.9547 11.7065 21.361 H 0.0 **** 0.0
11410 H 85.1277 12.5222 20.0852 H 0.0 **** 0.0
11411 H 83.1608 8.91043 20.0077 H 0.0 **** 0.0
11412 H 81.63 9.45048 20.8679 H 0.0 **** 0.0
11413 H 82.1324 7.77215 20.7639 H 0.0 **** 0.0
11414 H 86.5189 11.2729 24.048 H 0.0 **** 0.0
11415 H 85.1347 11.9913 24.9554 H 0.0 **** 0.0
11416 H 85.3223 12.3669 23.3649 H 0.0 **** 0.0
11417 H 81.6557 6.62248 24.1395 H 0.0 **** 0.0
11418 H 82.0798 6.29297 22.4408 H 0.0 **** 0.0
11419 H 81.0257 7.6881 22.8984 H 0.0 **** 0.0
11420 H 84.6834 3.68388 27.6626 H 0.0 **** 0.0
11421 H 84.6451 3.86101 25.9693 H 0.0 **** 0.0
11422 H 83.5052 4.78485 26.9532 H 0.0 **** 0.0
11423 H 88.1142 4.14341 28.6384 H 0.0 **** 0.0
11424 H 86.8367 3.33773 27.7811 H 0.0 **** 0.0
11425 H 86.5382 3.95863 29.4216 H 0.0 **** 0.0
11426 H 88.9533 6.14666 30.9587 H 0.0 **** 0.0
11427 H 94.2086 6.82532 27.9263 H 0.0 **** 0.0
11428 H 93.9344 6.43433 29.6028 H 0.0 **** 0.0
11429 H 94.258 8.08926 29.0249 H 0.0 **** 0.0
11430 H 91.851 9.35004 25.8074 H 0.0 **** 0.0
11431 H 92.667 7.82438 25.9492 H 0.0 **** 0.0
11432 H 93.5004 9.24391 26.6622 H 0.0 **** 0.0
11433 H 92.3484 11.3648 31.1203 H 0.0 **** 0.0
11434 H 86.045 12.2289 29.7651 H 0.0 **** 0.0
11435 H 94.7951 21.6687 33.6769 H 0.0 **** 0.0
11436 H 95.2599 21.3156 35.2935 H 0.0 **** 0.0
11437 H 93.6277 22.0574 35.0279 H 0.0 **** 0.0
11438 H 96.0914 19.2462 36.0324 H 0.0 **** 0.0
11439 H 95.1372 18.0091 36.9177 H 0.0 **** 0.0
11440 H 94.7707 19.7701 37.0856 H 0.0 **** 0.0
11441 C 58.2861 91.7569 0.175231 C 0.0 **** 0.0
11442 C 58.5762 90.8949 -0.92121 C 0.0 **** 0.0
11443 C 59.8839 90.8904 -1.51907 C 0.0 **** 0.0
11444 C 60.9664 91.4955 -0.85615 C 0.0 **** 0.0
11445 C 60.7186 92.3825 0.229974 C 0.0 **** 0.0
11446 C 59.3709 92.5773 0.664226 C 0.0 **** 0.0
11447 C 62.4046 91.3775 -1.45628 C 0.0 **** 0.0
11448 C 62.4717 91.0956 -2.99234 C 0.0 **** 0.0
11449 C 61.3554 90.6126 -3.67976 C 0.0 **** 0.0
11450 C 60.0668 90.3335 -2.92918 C 0.0 **** 0.0
11451 C 61.352 90.4749 -5.12095 C 0.0 **** 0.0
11452 C 62.5065 90.8399 -5.85445 C 0.0 **** 0.0
11453 C 63.7161 91.0566 -5.18466 C 0.0 **** 0.0
11454 C 63.6843 91.2533 -3.75884 C 0.0 **** 0.0
11455 C 64.9124 91.5074 -3.15701 C 0.0 **** 0.0
11456 C 66.141 91.667 -3.84218 C 0.0 **** 0.0
11457 C 66.1377 91.4074 -5.25582 C 0.0 **** 0.0
11458 C 64.9468 90.9258 -5.84571 C 0.0 **** 0.0
11459 C 67.4089 91.536 -6.0835 C 0.0 **** 0.0
11460 C 68.5981 92.1501 -5.31707 C 0.0 **** 0.0
11461 C 68.603 91.7961 -3.81734 C 0.0 **** 0.0
11462 C 67.3715 91.9065 -3.12884 C 0.0 **** 0.0
11463 C 68.707 93.7053 -5.54622 C 0.0 **** 0.0
11464 C 67.3655 94.3709 -5.78785 C 0.0 **** 0.0
11465 C 66.7422 93.8796 -7.0623 C 0.0 **** 0.0
11466 C 67.1473 92.3616 -7.3664 C 0.0 **** 0.0
11467 C 67.4498 92.2496 -1.75464 C 0.0 **** 0.0
11468 C 68.6227 92.0172 -1.02692 C 0.0 **** 0.0
11469 C 69.819 91.6978 -1.68251 C 0.0 **** 0.0
11470 C 69.8172 91.7276 -3.12639 C 0.0 **** 0.0
11471 C 71.0114 91.3122 -0.856918 C 0.0 **** 0.0
11472 C 71.0606 91.6375 0.591076 C 0.0 **** 0.0
11473 C 69.8684 92.0617 1.16895 C 0.0 **** 0.0
11474 C 68.6067 92.0351 0.466279 C 0.0 **** 0.0
11475 C 69.8008 92.2874 2.62358 C 0.0 **** 0.0
11476 C 71.1447 92.6385 3.26094 C 0.0 **** 0.0
11477 C 72.2431 91.799 2.73379 C 0.0 **** 0.0
11478 C 72.2012 91.4125 1.38869 C 0.0 **** 0.0
11479 N 73.3224 90.9071 0.79006 N 0.0 **** 0.0
11480 C 74.5236 90.8559 1.41447 C 0.0 **** 0.0
11481 C 74.6204 91.2248 2.7769 C 0.0 **** 0.0
11482 C 73.4711 91.7071 3.43932 C 0.0 **** 0.0
11483 C 73.5704 92.1668 4.87686 C 0.0 **** 0.0
11484 C 74.7753 91.5794 5.64179 C 0.0 **** 0.0
11485 C 76.0371 91.7549 4.81855 C 0.0 **** 0.0
11486 C 75.9285 90.9361 3.49397 C 0.0 **** 0.0
11487 C 77.091 91.2788 2.61678 C 0.0 **** 0.0
11488 C 76.9803 90.6348 1.24975 C 0.0 **** 0.0
11489 C 75.6823 90.4209 0.701402 C 0.0 **** 0.0
11490 C 75.5536 89.7448 -0.490757 C 0.0 **** 0.0
11491 C 76.6559 89.4725 -1.27039 C 0.0 **** 0.0
11492 C 77.9566 89.8363 -0.866053 C 0.0 **** 0.0
11493 C 78.1409 90.3702 0.432195 C 0.0 **** 0.0
11494 C 59.0012 93.6966 1.6551 C 0.0 **** 0.0
11495 C 58.4231 94.8935 0.885513 C 0.0 **** 0.0
11496 C 56.9929 91.72 0.944007 C 0.0 **** 0.0
11497 C 61.8147 93.0646 1.04485 C 0.0 **** 0.0
11498 C 57.444 90.1181 -1.52369 C 0.0 **** 0.0
11499 C 60.1409 90.0164 -5.92721 C 0.0 **** 0.0
11500 C 62.4212 91.1232 -7.34629 C 0.0 **** 0.0
11501 O 64.9986 90.2119 -7.06331 O 0.0 **** 0.0
11502 C 67.0628 94.7709 -8.32343 C 0.0 **** 0.0
11503 C 67.4293 95.8908 -5.65454 C 0.0 **** 0.0
11504 O 70.9962 91.6178 -3.88023 O 0.0 **** 0.0
11505 O 66.3526 92.9448 -1.15871 O 0.0 **** 0.0
11506 O 67.6131 91.9646 1.08851 O 0.0 **** 0.0
11507 O 71.8897 90.6117 -1.34957 O 0.0 **** 0.0
11508 C 79.5461 90.7945 0.942082 C 0.0 **** 0.0
11509 C 79.076 89.6306 -1.81748 C 0.0 **** 0.0
11510 H 62.8362 92.3694 -1.30428 H 0.0 **** 0.0
11511 H 63.0465 90.7044 -0.878653 H 0.0 **** 0.0
11512 H 59.9998 89.2294 -2.90473 H 0.0 **** 0.0
11513 H 59.1915 90.7268 -3.50247 H 0.0 **** 0.0
11514 H 64.9238 91.4742 -2.09927 H 0.0 **** 0.0
11515 H 69.1552 94.2199 -4.65974 H 0.0 **** 0.0
11516 H 69.3826 93.8761 -6.41026 H 0.0 **** 0.0
11517 H 66.6531 94.0392 -4.98939 H 0.0 **** 0.0
11518 H 65.6236 93.9503 -6.98426 H 0.0 **** 0.0
11519 H 68.1703 92.4135 -7.90433 H 0.0 **** 0.0
11520 H 66.4937 91.8389 -8.0793 H 0.0 **** 0.0
11521 H 69.1753 93.1925 2.79305 H 0.0 **** 0.0
11522 H 69.3112 91.444 3.13666 H 0.0 **** 0.0
11523 H 71.0296 92.5733 4.37035 H 0.0 **** 0.0
11524 H 71.378 93.7019 2.98803 H 0.0 **** 0.0
11525 H 73.4638 93.2575 4.94513 H 0.0 **** 0.0
11526 H 72.6562 91.7781 5.38418 H 0.0 **** 0.0
11527 H 74.5535 90.55 5.96245 H 0.0 **** 0.0
11528 H 74.8276 92.2227 6.59898 H 0.0 **** 0.0
11529 H 76.8213 91.3585 5.43495 H 0.0 **** 0.0
11530 H 76.2523 92.8771 4.6366 H 0.0 **** 0.0
11531 H 75.9607 89.8975 3.83335 H 0.0 **** 0.0
11532 H 77.1251 92.3429 2.49694 H 0.0 **** 0.0
11533 H 78.0052 90.9532 3.18398 H 0.0 **** 0.0
11534 H 74.5557 89.5121 -0.845481 H 0.0 **** 0.0
11535 H 76.5236 89.0326 -2.25764 H 0.0 **** 0.0
11536 H 59.8516 94.073 2.28171 H 0.0 **** 0.0
11537 H 58.2385 93.3616 2.39343 H 0.0 **** 0.0
11538 H 57.4532 94.591 0.437677 H 0.0 **** 0.0
11539 H 59.0982 95.2076 0.120049 H 0.0 **** 0.0
11540 H 58.2989 95.7332 1.61097 H 0.0 **** 0.0
11541 H 56.1912 91.0618 0.514798 H 0.0 **** 0.0
11542 H 56.4847 92.7056 0.935465 H 0.0 **** 0.0
11543 H 57.1726 91.3873 2.00032 H 0.0 **** 0.0
11544 H 61.8772 94.1569 0.834951 H 0.0 **** 0.0
11545 H 62.7908 92.6149 0.84828 H 0.0 **** 0.0
11546 H 61.6556 92.8899 2.13994 H 0.0 **** 0.0
11547 H 57.7429 89.4274 -2.33959 H 0.0 **** 0.0
11548 H 56.5985 90.7856 -1.80911 H 0.0 **** 0.0
11549 H 57.0647 89.4313 -0.715953 H 0.0 **** 0.0
11550 H 60.4903 89.3655 -6.73963 H 0.0 **** 0.0
11551 H 59.6049 90.9277 -6.24124 H 0.0 **** 0.0
11552 H 59.4452 89.4154 -5.3265 H 0.0 **** 0.0
11553 H 63.286 91.7108 -7.72757 H 0.0 **** 0.0
11554 H 61.5122 91.7659 -7.5191 H 0.0 **** 0.0
11555 H 62.3547 90.1504 -7.91384 H 0.0 **** 0.0
11556 H 65.9285 89.8111 -7.21757 H 0.0 **** 0.0
11557 H 66.5104 95.7406 -8.31219 H 0.0 **** 0.0
11558 H 66.6873 94.2876 -9.24301 H 0.0 **** 0.0
11559 H 68.1274 94.9364 -8.44499 H 0.0 **** 0.0
11560 H 67.6089 96.0961 -4.55862 H 0.0 **** 0.0
11561 H 66.4842 96.3777 -5.85801 H 0.0 **** 0.0
11562 H 68.2391 96.3029 -6.27097 H 0.0 **** 0.0
11563 H 71.8168 91.8656 -3.33213 H 0.0 **** 0.0
11564 H 66.4584 93.3421 -0.235488 H 0.0 **** 0.0
11565 H 79.5507 91.8549 1.30451 H 0.0 **** 0.0
11566 H 80.3137 90.6561 0.154912 H 0.0 **** 0.0
11567 H 79.8029 90.1568 1.79044 H 0.0 **** 0.0
11568 H 79.4628 90.6453 -2.04046 H 0.0 **** 0.0
11569 H 78.8089 89.1419 -2.81541 H 0.0 **** 0.0
11570 H 79.8896 89.0157 -1.34565 H 0.0 **** 0.0
11571 C 102.002 53.7761 101.675 C 0.0 **** 0.0
11572 C 101.833 54.4816 102.884 C 0.0 **** 0.0
11573 C 102.034 55.9039 102.897 C 0.0 **** 0.0
11574 C 102.321 56.6116 101.68 C 0.0 **** 0.0
11575 C 102.371 55.8767 100.454 C 0.0 **** 0.0
11576 C 102.178 54.4735 100.453 C 0.0 **** 0.0
11577 C 102.673 58.1266 101.721 C 0.0 **** 0.0
11578 C 102.907 58.7269 103.058 C 0.0 **** 0.0
11579 C 102.34 58.117 104.217 C 0.0 **** 0.0
11580 C 101.755 56.7416 104.169 C 0.0 **** 0.0
11581 C 102.288 58.8747 105.416 C 0.0 **** 0.0
11582 C 103.021 60.0975 105.541 C 0.0 **** 0.0
11583 C 103.893 60.4568 104.476 C 0.0 **** 0.0
11584 C 103.675 59.929 103.214 C 0.0 **** 0.0
11585 C 104.114 60.675 102.09 C 0.0 **** 0.0
11586 C 104.827 61.8616 102.271 C 0.0 **** 0.0
11587 C 105.431 62.0641 103.519 C 0.0 **** 0.0
11588 C 104.853 61.4795 104.67 C 0.0 **** 0.0
11589 C 106.636 63.0717 103.616 C 0.0 **** 0.0
11590 C 107.08 63.7039 102.289 C 0.0 **** 0.0
11591 C 105.919 63.9151 101.399 C 0.0 **** 0.0
11592 C 104.898 62.9214 101.272 C 0.0 **** 0.0
11593 C 108.205 62.9394 101.56 C 0.0 **** 0.0
11594 C 109.3 62.3567 102.51 C 0.0 **** 0.0
11595 C 109.23 62.8274 103.878 C 0.0 **** 0.0
11596 C 107.826 62.5536 104.479 C 0.0 **** 0.0
11597 C 103.963 63.0487 100.224 C 0.0 **** 0.0
11598 C 104.044 64.1331 99.3099 C 0.0 **** 0.0
11599 C 105.008 65.1237 99.4982 C 0.0 **** 0.0
11600 C 105.998 64.9614 100.506 C 0.0 **** 0.0
11601 C 104.948 66.3975 98.7259 C 0.0 **** 0.0
11602 C 104.189 66.4566 97.475 C 0.0 **** 0.0
11603 C 103.199 65.4674 97.2929 C 0.0 **** 0.0
11604 C 103.001 64.3917 98.3035 C 0.0 **** 0.0
11605 C 102.148 65.6839 96.2648 C 0.0 **** 0.0
11606 C 102.769 66.2985 94.9799 C 0.0 **** 0.0
11607 C 103.529 67.541 95.3517 C 0.0 **** 0.0
11608 C 104.325 67.5025 96.5522 C 0.0 **** 0.0
11609 N 105.193 68.5055 96.8329 N 0.0 **** 0.0
11610 C 105.34 69.5616 96.0402 C 0.0 **** 0.0
11611 C 104.488 69.717 94.9417 C 0.0 **** 0.0
11612 C 103.583 68.7284 94.5708 C 0.0 **** 0.0
11613 C 102.69 68.8974 93.4023 C 0.0 **** 0.0
11614 C 102.547 70.3476 93.0469 C 0.0 **** 0.0
11615 C 103.895 71.0341 92.8314 C 0.0 **** 0.0
11616 C 104.663 71.0107 94.1261 C 0.0 **** 0.0
11617 C 106.119 71.2835 93.9898 C 0.0 **** 0.0
11618 C 106.716 71.412 95.3785 C 0.0 **** 0.0
11619 C 106.264 70.5619 96.3572 C 0.0 **** 0.0
11620 C 106.628 70.771 97.7026 C 0.0 **** 0.0
11621 C 107.379 71.8896 98.0601 C 0.0 **** 0.0
11622 C 107.987 72.6446 97.0446 C 0.0 **** 0.0
11623 C 107.694 72.3517 95.6821 C 0.0 **** 0.0
11624 C 101.877 53.7716 99.151 C 0.0 **** 0.0
11625 C 103.149 53.4084 98.3842 C 0.0 **** 0.0
11626 C 101.899 52.2512 101.695 C 0.0 **** 0.0
11627 C 102.614 56.6553 99.1312 C 0.0 **** 0.0
11628 C 101.371 53.7404 104.138 C 0.0 **** 0.0
11629 C 101.429 58.3738 106.583 C 0.0 **** 0.0
11630 C 102.707 61.0542 106.675 C 0.0 **** 0.0
11631 O 105.407 61.6893 105.944 O 0.0 **** 0.0
11632 C 109.553 64.2992 104.141 C 0.0 **** 0.0
11633 C 110.755 62.5193 101.903 C 0.0 **** 0.0
11634 O 107.087 65.8394 100.628 O 0.0 **** 0.0
11635 O 102.887 62.2044 100.232 O 0.0 **** 0.0
11636 O 101.913 63.81 98.3614 O 0.0 **** 0.0
11637 O 105.316 67.422 99.2669 O 0.0 **** 0.0
11638 C 108.413 73.1086 94.5753 C 0.0 **** 0.0
11639 C 109.017 73.7108 97.4001 C 0.0 **** 0.0
11640 H 103.579 58.2701 101.115 H 0.0 **** 0.0
11641 H 101.794 58.7421 101.297 H 0.0 **** 0.0
11642 H 100.631 56.7723 104.297 H 0.0 **** 0.0
11643 H 102.244 56.188 104.998 H 0.0 **** 0.0
11644 H 103.892 60.3124 101.082 H 0.0 **** 0.0
11645 H 107.787 62.1471 100.876 H 0.0 **** 0.0
11646 H 108.637 63.7217 100.886 H 0.0 **** 0.0
11647 H 109.206 61.2775 102.491 H 0.0 **** 0.0
11648 H 110.001 62.2543 104.454 H 0.0 **** 0.0
11649 H 107.755 63.0258 105.466 H 0.0 **** 0.0
11650 H 107.675 61.4745 104.696 H 0.0 **** 0.0
11651 H 101.73 64.7182 95.967 H 0.0 **** 0.0
11652 H 101.382 66.4182 96.6366 H 0.0 **** 0.0
11653 H 101.939 66.4768 94.31 H 0.0 **** 0.0
11654 H 103.493 65.5986 94.5634 H 0.0 **** 0.0
11655 H 103.116 68.2797 92.5442 H 0.0 **** 0.0
11656 H 101.694 68.6037 93.6596 H 0.0 **** 0.0
11657 H 102.011 70.854 93.8645 H 0.0 **** 0.0
11658 H 101.911 70.5136 92.1779 H 0.0 **** 0.0
11659 H 103.781 72.0675 92.4861 H 0.0 **** 0.0
11660 H 104.478 70.4961 92.0508 H 0.0 **** 0.0
11661 H 104.237 71.7941 94.7677 H 0.0 **** 0.0
11662 H 106.661 70.4487 93.478 H 0.0 **** 0.0
11663 H 106.204 72.2129 93.4078 H 0.0 **** 0.0
11664 H 106.299 70.1648 98.5374 H 0.0 **** 0.0
11665 H 107.595 72.1115 99.1049 H 0.0 **** 0.0
11666 H 101.267 54.4644 98.5566 H 0.0 **** 0.0
11667 H 101.257 52.8208 99.3281 H 0.0 **** 0.0
11668 H 103.608 52.4536 98.7242 H 0.0 **** 0.0
11669 H 103.901 54.1928 98.4755 H 0.0 **** 0.0
11670 H 102.91 53.1764 97.3166 H 0.0 **** 0.0
11671 H 102.489 51.8246 100.824 H 0.0 **** 0.0
11672 H 100.863 51.9866 101.589 H 0.0 **** 0.0
11673 H 102.205 51.8319 102.693 H 0.0 **** 0.0
11674 H 103.589 57.1081 99.1723 H 0.0 **** 0.0
11675 H 101.886 57.5072 99.0053 H 0.0 **** 0.0
11676 H 102.666 56.0392 98.2301 H 0.0 **** 0.0
11677 H 100.89 54.3787 104.879 H 0.0 **** 0.0
11678 H 102.175 53.1467 104.627 H 0.0 **** 0.0
11679 H 100.564 53.0652 103.829 H 0.0 **** 0.0
11680 H 100.61 59.0656 106.795 H 0.0 **** 0.0
11681 H 102.057 58.2689 107.491 H 0.0 **** 0.0
11682 H 100.983 57.355 106.464 H 0.0 **** 0.0
11683 H 103.291 60.8266 107.575 H 0.0 **** 0.0
11684 H 101.569 61.0123 106.857 H 0.0 **** 0.0
11685 H 102.903 62.1074 106.397 H 0.0 **** 0.0
11686 H 105.565 62.6935 106.149 H 0.0 **** 0.0
11687 H 110.6 64.4666 103.836 H 0.0 **** 0.0
11688 H 109.466 64.5455 105.196 H 0.0 **** 0.0
11689 H 108.906 65.0057 103.631 H 0.0 **** 0.0
11690 H 110.91 61.9513 100.924 H 0.0 **** 0.0
11691 H 111.486 62.1461 102.646 H 0.0 **** 0.0
11692 H 110.925 63.6245 101.682 H 0.0 **** 0.0
11693 H 107.353 66.3236 99.7945 H 0.0 **** 0.0
11694 H 102.671 61.7635 99.3286 H 0.0 **** 0.0
11695 H 108.376 72.6318 93.5596 H 0.0 **** 0.0
11696 H 109.453 73.2624 94.8359 H 0.0 **** 0.0
11697 H 107.957 74.111 94.5054 H 0.0 **** 0.0
11698 H 110.094 73.4652 97.1032 H 0.0 **** 0.0
11699 H 109.054 73.8213 98.4796 H 0.0 **** 0.0
11700 H 108.75 74.7228 97.0206 H 0.0 **** 0.0
11701 C 2.67955 59.208 53.1477 C 0.0 **** 0.0
11702 C 1.73536 58.4286 53.8772 C 0.0 **** 0.0
11703 C 1.62924 58.5547 55.2448 C 0.0 **** 0.0
11704 C 2.5974 59.1751 55.9678 C 0.0 **** 0.0
11705 C 3.72989 59.7745 55.2634 C 0.0 **** 0.0
11706 C 3.6693 59.9035 53.8457 C 0.0 **** 0.0
11707 C 2.62131 59.1273 57.4751 C 0.0 **** 0.0
11708 C 1.27152 58.9003 58.0743 C 0.0 **** 0.0
11709 C 0.220803 58.33 57.3583 C 0.0 **** 0.0
11710 C 0.5348 57.8195 55.9611 C 0.0 **** 0.0
11711 C -1.08438 58.2224 57.9695 C 0.0 **** 0.0
11712 C -1.32337 58.6806 59.2605 C 0.0 **** 0.0
11713 C -0.302947 59.3675 59.9064 C 0.0 **** 0.0
11714 C 1.01881 59.3446 59.411 C 0.0 **** 0.0
11715 C 2.05038 59.7258 60.2739 C 0.0 **** 0.0
11716 C 1.79332 60.3239 61.5899 C 0.0 **** 0.0
11717 C 0.459176 60.3361 62.0108 C 0.0 **** 0.0
11718 C -0.545971 60.0866 61.0861 C 0.0 **** 0.0
11719 C 0.130546 60.7757 63.4241 C 0.0 **** 0.0
11720 C 1.25133 60.5035 64.408 C 0.0 **** 0.0
11721 C 2.58129 60.9455 63.795 C 0.0 **** 0.0
11722 C 2.82232 60.8243 62.4029 C 0.0 **** 0.0
11723 C 1.29759 59.0241 64.9319 C 0.0 **** 0.0
11724 C -0.0317105 58.2801 64.7707 C 0.0 **** 0.0
11725 C -1.19571 59.1607 65.1152 C 0.0 **** 0.0
11726 C -1.22273 60.3702 64.1149 C 0.0 **** 0.0
11727 C 4.00217 61.3397 61.8479 C 0.0 **** 0.0
11728 C 5.02812 61.8458 62.7183 C 0.0 **** 0.0
11729 C 4.77898 61.9649 64.0922 C 0.0 **** 0.0
11730 C 3.5547 61.4992 64.6296 C 0.0 **** 0.0
11731 C 5.84275 62.6071 64.9295 C 0.0 **** 0.0
11732 C 7.03761 63.2601 64.2561 C 0.0 **** 0.0
11733 C 7.33345 62.9599 62.9532 C 0.0 **** 0.0
11734 C 6.42377 62.0878 62.2331 C 0.0 **** 0.0
11735 C 8.50131 63.5875 62.1981 C 0.0 **** 0.0
11736 C 9.54905 64.1151 63.174 C 0.0 **** 0.0
11737 C 8.88123 64.8525 64.365 C 0.0 **** 0.0
11738 C 7.72319 64.2833 64.9319 C 0.0 **** 0.0
11739 N 7.22891 64.8224 66.0742 N 0.0 **** 0.0
11740 C 7.76208 65.9291 66.6795 C 0.0 **** 0.0
11741 C 8.83646 66.6111 66.0942 C 0.0 **** 0.0
11742 C 9.33524 66.0914 64.8554 C 0.0 **** 0.0
11743 C 10.5182 66.8018 64.2069 C 0.0 **** 0.0
11744 C 10.7756 68.248 64.6276 C 0.0 **** 0.0
11745 C 10.6624 68.3721 66.1642 C 0.0 **** 0.0
11746 C 9.29543 67.9256 66.6766 C 0.0 **** 0.0
11747 C 9.28626 67.862 68.1917 C 0.0 **** 0.0
11748 C 8.00585 67.2696 68.7215 C 0.0 **** 0.0
11749 C 7.248 66.3498 67.9219 C 0.0 **** 0.0
11750 C 6.00847 65.8345 68.4118 C 0.0 **** 0.0
11751 C 5.49336 66.3407 69.5727 C 0.0 **** 0.0
11752 C 6.27317 67.184 70.4019 C 0.0 **** 0.0
11753 C 7.60732 67.5222 70.0389 C 0.0 **** 0.0
11754 C 4.72152 60.7795 53.1116 C 0.0 **** 0.0
11755 C 5.91917 59.9164 52.725 C 0.0 **** 0.0
11756 C 2.65561 59.2577 51.6499 C 0.0 **** 0.0
11757 C 4.8073 60.5222 56.0532 C 0.0 **** 0.0
11758 C 0.809289 57.4886 53.1307 C 0.0 **** 0.0
11759 C -2.18763 57.4768 57.2178 C 0.0 **** 0.0
11760 C -2.68269 58.3956 59.95 C 0.0 **** 0.0
11761 O -1.71008 60.8937 61.1637 O 0.0 **** 0.0
11762 C -1.26973 59.6123 66.5805 C 0.0 **** 0.0
11763 C -0.0737775 56.9405 65.5544 C 0.0 **** 0.0
11764 O 3.34895 61.6795 66.0 O 0.0 **** 0.0
11765 O 4.01132 61.7065 60.4777 O 0.0 **** 0.0
11766 O 6.81749 61.4945 61.2523 O 0.0 **** 0.0
11767 O 5.72658 62.6712 66.1459 O 0.0 **** 0.0
11768 C 8.59601 68.1736 71.0367 C 0.0 **** 0.0
11769 C 5.64301 67.5876 71.7698 C 0.0 **** 0.0
11770 H 3.31571 58.2962 57.7024 H 0.0 **** 0.0
11771 H 3.00837 60.1151 57.7873 H 0.0 **** 0.0
11772 H -0.400147 58.0354 55.3438 H 0.0 **** 0.0
11773 H 0.723039 56.745 56.0178 H 0.0 **** 0.0
11774 H 3.09193 59.587 59.9385 H 0.0 **** 0.0
11775 H 2.06084 58.4793 64.3063 H 0.0 **** 0.0
11776 H 1.62372 58.971 65.9781 H 0.0 **** 0.0
11777 H -0.129242 57.99 63.6666 H 0.0 **** 0.0
11778 H -2.1288 58.6116 64.9701 H 0.0 **** 0.0
11779 H -1.51804 61.3222 64.6968 H 0.0 **** 0.0
11780 H -2.10404 60.2228 63.4138 H 0.0 **** 0.0
11781 H 9.03039 62.8225 61.562 H 0.0 **** 0.0
11782 H 8.14965 64.3491 61.4793 H 0.0 **** 0.0
11783 H 10.2274 64.7582 62.5591 H 0.0 **** 0.0
11784 H 10.162 63.2591 63.5304 H 0.0 **** 0.0
11785 H 11.4188 66.205 64.4231 H 0.0 **** 0.0
11786 H 10.4048 66.9212 63.1391 H 0.0 **** 0.0
11787 H 10.0998 68.939 64.1042 H 0.0 **** 0.0
11788 H 11.8283 68.464 64.3478 H 0.0 **** 0.0
11789 H 10.711 69.4256 66.4599 H 0.0 **** 0.0
11790 H 11.4591 67.7205 66.6406 H 0.0 **** 0.0
11791 H 8.54648 68.6897 66.3745 H 0.0 **** 0.0
11792 H 10.1518 67.2828 68.6408 H 0.0 **** 0.0
11793 H 9.43617 68.8814 68.5368 H 0.0 **** 0.0
11794 H 5.43949 65.1264 67.8675 H 0.0 **** 0.0
11795 H 4.51729 66.0707 69.9247 H 0.0 **** 0.0
11796 H 4.97657 61.58 53.8107 H 0.0 **** 0.0
11797 H 4.26673 61.366 52.2402 H 0.0 **** 0.0
11798 H 5.6813 59.2126 51.8909 H 0.0 **** 0.0
11799 H 6.32359 59.3219 53.5715 H 0.0 **** 0.0
11800 H 6.75264 60.565 52.4209 H 0.0 **** 0.0
11801 H 1.66847 59.7056 51.341 H 0.0 **** 0.0
11802 H 2.81508 58.2823 51.1585 H 0.0 **** 0.0
11803 H 3.35255 59.9254 51.1235 H 0.0 **** 0.0
11804 H 4.99994 60.0916 57.0367 H 0.0 **** 0.0
11805 H 4.55353 61.5678 56.1971 H 0.0 **** 0.0
11806 H 5.78626 60.469 55.5616 H 0.0 **** 0.0
11807 H 0.688607 56.543 53.6787 H 0.0 **** 0.0
11808 H 1.19462 57.1669 52.1634 H 0.0 **** 0.0
11809 H -0.16137 57.964 52.9297 H 0.0 **** 0.0
11810 H -3.04064 58.1363 57.1268 H 0.0 **** 0.0
11811 H -2.46028 56.5745 57.771 H 0.0 **** 0.0
11812 H -1.98909 57.0405 56.2389 H 0.0 **** 0.0
11813 H -2.69557 58.6498 61.017 H 0.0 **** 0.0
11814 H -2.85157 57.3355 59.9039 H 0.0 **** 0.0
11815 H -3.46655 58.9559 59.4441 H 0.0 **** 0.0
11816 H -2.18911 61.0024 60.2928 H 0.0 **** 0.0
11817 H -1.43968 58.7513 67.2411 H 0.0 **** 0.0
11818 H -2.13182 60.3074 66.696 H 0.0 **** 0.0
11819 H -0.3278 60.1075 66.8506 H 0.0 **** 0.0
11820 H 0.747776 56.3109 65.2228 H 0.0 **** 0.0
11821 H -1.03905 56.4706 65.3593 H 0.0 **** 0.0
11822 H 0.0819014 57.1199 66.6422 H 0.0 **** 0.0
11823 H 2.46684 61.4142 66.3171 H 0.0 **** 0.0
11824 H 4.8785 62.0584 60.0794 H 0.0 **** 0.0
11825 H 9.48683 67.5901 71.0874 H 0.0 **** 0.0
11826 H 8.18769 68.2245 72.0635 H 0.0 **** 0.0
11827 H 8.89257 69.1971 70.7376 H 0.0 **** 0.0
11828 H 6.10335 66.9536 72.6264 H 0.0 **** 0.0
11829 H 4.55103 67.3998 71.9005 H 0.0 **** 0.0
11830 H 5.72715 68.6974 71.9054 H 0.0 **** 0.0
11831 C 21.019 58.8179 31.542 C 0.0 **** 0.0
11832 C 22.2451 58.3066 32.0524 C 0.0 **** 0.0
11833 C 22.8011 58.8367 33.2309 C 0.0 **** 0.0
11834 C 22.0888 59.7783 33.9552 C 0.0 **** 0.0
11835 C 20.7259 60.1326 33.6197 C 0.0 **** 0.0
11836 C 20.2008 59.6597 32.3791 C 0.0 **** 0.0
11837 C 22.7295 60.276 35.249 C 0.0 **** 0.0
11838 C 24.1993 60.0798 35.5498 C 0.0 **** 0.0
11839 C 24.8877 59.1028 34.8106 C 0.0 **** 0.0
11840 C 24.2157 58.48 33.616 C 0.0 **** 0.0
11841 C 26.2647 58.7702 35.1631 C 0.0 **** 0.0
11842 C 26.9674 59.5517 36.0585 C 0.0 **** 0.0
11843 C 26.2515 60.486 36.8342 C 0.0 **** 0.0
11844 C 24.8677 60.7164 36.6202 C 0.0 **** 0.0
11845 C 24.1467 61.5915 37.4861 C 0.0 **** 0.0
11846 C 24.692 62.1193 38.6721 C 0.0 **** 0.0
11847 C 26.0867 61.9858 38.7837 C 0.0 **** 0.0
11848 C 26.8632 61.1164 37.9707 C 0.0 **** 0.0
11849 C 26.8095 62.7897 39.7713 C 0.0 **** 0.0
11850 C 26.0678 62.9971 41.0878 C 0.0 **** 0.0
11851 C 24.5881 63.4151 40.8127 C 0.0 **** 0.0
11852 C 23.9275 62.7749 39.7001 C 0.0 **** 0.0
11853 C 26.9579 63.8848 41.9789 C 0.0 **** 0.0
11854 C 27.4151 65.181 41.3196 C 0.0 **** 0.0
11855 C 28.1209 64.9831 40.0449 C 0.0 **** 0.0
11856 C 27.296 64.0843 39.087 C 0.0 **** 0.0
11857 C 22.5111 62.7293 39.7545 C 0.0 **** 0.0
11858 C 21.7871 63.6655 40.4951 C 0.0 **** 0.0
11859 C 22.44 64.4058 41.4924 C 0.0 **** 0.0
11860 C 23.8303 64.1581 41.7678 C 0.0 **** 0.0
11861 C 21.6645 65.4527 42.2182 C 0.0 **** 0.0
11862 C 20.1953 65.3319 42.3033 C 0.0 **** 0.0
11863 C 19.5118 64.5479 41.3766 C 0.0 **** 0.0
11864 C 20.3242 63.8349 40.3315 C 0.0 **** 0.0
11865 C 18.0893 64.1557 41.6202 C 0.0 **** 0.0
11866 C 17.2932 65.3133 42.2597 C 0.0 **** 0.0
11867 C 18.0732 66.1385 43.2859 C 0.0 **** 0.0
11868 C 19.4926 66.0178 43.313 C 0.0 **** 0.0
11869 N 20.1981 66.8245 44.1527 N 0.0 **** 0.0
11870 C 19.6317 67.777 44.9494 C 0.0 **** 0.0
11871 C 18.2529 67.9802 44.8698 C 0.0 **** 0.0
11872 C 17.4309 67.1002 44.105 C 0.0 **** 0.0
11873 C 15.9583 67.2331 44.0101 C 0.0 **** 0.0
11874 C 15.3698 68.3308 44.9395 C 0.0 **** 0.0
11875 C 16.2732 69.5232 45.0775 C 0.0 **** 0.0
11876 C 17.5939 69.0507 45.7416 C 0.0 **** 0.0
11877 C 18.5863 70.1796 45.9246 C 0.0 **** 0.0
11878 C 19.8637 69.6182 46.4938 C 0.0 **** 0.0
11879 C 20.4712 68.5971 45.7649 C 0.0 **** 0.0
11880 C 21.8053 68.1983 46.0744 C 0.0 **** 0.0
11881 C 22.423 68.6796 47.2359 C 0.0 **** 0.0
11882 C 21.8265 69.7455 47.9764 C 0.0 **** 0.0
11883 C 20.5214 70.2085 47.6157 C 0.0 **** 0.0
11884 C 18.7894 60.0953 31.9634 C 0.0 **** 0.0
11885 C 18.9255 61.3967 31.226 C 0.0 **** 0.0
11886 C 20.5696 58.4608 30.1582 C 0.0 **** 0.0
11887 C 19.8666 61.0347 34.4992 C 0.0 **** 0.0
11888 C 22.9917 57.1892 31.3301 C 0.0 **** 0.0
11889 C 27.0324 57.6961 34.3552 C 0.0 **** 0.0
11890 C 28.5198 59.5885 35.9646 C 0.0 **** 0.0
11891 O 28.1346 60.7217 38.3922 O 0.0 **** 0.0
11892 C 29.5131 64.2378 40.2762 C 0.0 **** 0.0
11893 C 28.1534 66.1406 42.3102 C 0.0 **** 0.0
11894 O 24.3637 64.5433 43.0195 O 0.0 **** 0.0
11895 O 21.8138 61.6945 39.1584 O 0.0 **** 0.0
11896 O 19.7622 63.4078 39.3426 O 0.0 **** 0.0
11897 O 22.22 66.4478 42.6668 O 0.0 **** 0.0
11898 C 19.8204 71.269 48.4066 C 0.0 **** 0.0
11899 C 22.6441 70.3579 49.0871 C 0.0 **** 0.0
11900 H 22.6125 61.3515 35.1916 H 0.0 **** 0.0
11901 H 22.1634 59.8814 36.1306 H 0.0 **** 0.0
11902 H 24.2699 57.3831 33.8505 H 0.0 **** 0.0
11903 H 24.8313 58.7786 32.7453 H 0.0 **** 0.0
11904 H 23.1009 61.7649 37.2779 H 0.0 **** 0.0
11905 H 26.5575 64.0694 42.9499 H 0.0 **** 0.0
11906 H 27.9008 63.3259 42.2387 H 0.0 **** 0.0
11907 H 26.505 65.7479 40.9858 H 0.0 **** 0.0
11908 H 28.2678 66.0227 39.5595 H 0.0 **** 0.0
11909 H 27.8987 63.8123 38.1753 H 0.0 **** 0.0
11910 H 26.4793 64.6673 38.729 H 0.0 **** 0.0
11911 H 17.6344 63.9218 40.634 H 0.0 **** 0.0
11912 H 18.1193 63.2197 42.2563 H 0.0 **** 0.0
11913 H 16.4175 64.84 42.7117 H 0.0 **** 0.0
11914 H 16.928 65.9531 41.4381 H 0.0 **** 0.0
11915 H 15.7149 67.5061 42.946 H 0.0 **** 0.0
11916 H 15.443 66.2876 44.2317 H 0.0 **** 0.0
11917 H 15.119 67.8952 45.9652 H 0.0 **** 0.0
11918 H 14.412 68.6388 44.4658 H 0.0 **** 0.0
11919 H 15.8069 70.2747 45.7209 H 0.0 **** 0.0
11920 H 16.5372 69.9901 44.1089 H 0.0 **** 0.0
11921 H 17.3428 68.5546 46.7087 H 0.0 **** 0.0
11922 H 18.846 70.5409 44.9046 H 0.0 **** 0.0
11923 H 18.111 70.9767 46.5552 H 0.0 **** 0.0
11924 H 22.3181 67.3609 45.5533 H 0.0 **** 0.0
11925 H 23.3815 68.3103 47.4617 H 0.0 **** 0.0
11926 H 18.0777 60.2891 32.7761 H 0.0 **** 0.0
11927 H 18.3255 59.3067 31.2698 H 0.0 **** 0.0
11928 H 18.0234 61.5691 30.6394 H 0.0 **** 0.0
11929 H 19.6547 61.3199 30.4328 H 0.0 **** 0.0
11930 H 19.2929 62.2307 31.9413 H 0.0 **** 0.0
11931 H 21.3461 58.6797 29.3223 H 0.0 **** 0.0
11932 H 19.703 59.0558 29.8026 H 0.0 **** 0.0
11933 H 20.3492 57.3755 30.0439 H 0.0 **** 0.0
11934 H 19.6532 62.0366 34.0804 H 0.0 **** 0.0
11935 H 20.3907 61.2602 35.4493 H 0.0 **** 0.0
11936 H 18.8926 60.5343 34.8227 H 0.0 **** 0.0
11937 H 23.3361 56.4191 32.0079 H 0.0 **** 0.0
11938 H 23.8461 57.6476 30.8507 H 0.0 **** 0.0
11939 H 22.415 56.6347 30.5165 H 0.0 **** 0.0
11940 H 27.7872 57.2124 34.9382 H 0.0 **** 0.0
11941 H 27.4918 58.1483 33.4174 H 0.0 **** 0.0
11942 H 26.3356 56.9152 34.0371 H 0.0 **** 0.0
11943 H 28.8006 60.6799 36.0126 H 0.0 **** 0.0
11944 H 28.9327 59.2188 34.9677 H 0.0 **** 0.0
11945 H 28.9958 58.9754 36.7958 H 0.0 **** 0.0
11946 H 28.5586 61.2925 39.1371 H 0.0 **** 0.0
11947 H 30.1794 64.7397 41.0408 H 0.0 **** 0.0
11948 H 29.979 64.2789 39.3003 H 0.0 **** 0.0
11949 H 29.3846 63.1691 40.5197 H 0.0 **** 0.0
11950 H 27.4849 66.3325 43.1918 H 0.0 **** 0.0
11951 H 28.336 67.0964 41.7767 H 0.0 **** 0.0
11952 H 29.1525 65.7665 42.6867 H 0.0 **** 0.0
11953 H 23.6962 64.5819 43.7956 H 0.0 **** 0.0
11954 H 20.9254 61.4412 39.57 H 0.0 **** 0.0
11955 H 19.4699 72.064 47.7292 H 0.0 **** 0.0
11956 H 20.5135 71.7774 49.0521 H 0.0 **** 0.0
11957 H 19.0162 70.838 49.0536 H 0.0 **** 0.0
11958 H 23.588 69.8502 49.2828 H 0.0 **** 0.0
11959 H 22.0337 70.2983 50.0084 H 0.0 **** 0.0
11960 H 22.8397 71.4004 48.838 H 0.0 **** 0.0
11961 C 24.2227 92.9664 9.41888 C 0.0 **** 0.0
11962 C 25.4611 93.4442 8.92752 C 0.0 **** 0.0
11963 C 25.5309 93.8414 7.57412 C 0.0 **** 0.0
11964 C 24.5044 93.5146 6.69905 C 0.0 **** 0.0
11965 C 23.2466 93.0879 7.21434 C 0.0 **** 0.0
11966 C 23.1247 92.8118 8.59615 C 0.0 **** 0.0
11967 C 24.7567 93.8324 5.20764 C 0.0 **** 0.0
11968 C 25.1143 95.3007 5.08888 C 0.0 **** 0.0
11969 C 26.1282 95.7416 5.96143 C 0.0 **** 0.0
11970 C 26.618 94.7889 7.08376 C 0.0 **** 0.0
11971 C 26.5922 97.1047 5.90311 C 0.0 **** 0.0
11972 C 26.0637 97.952 4.8723 C 0.0 **** 0.0
11973 C 24.8649 97.5828 4.20717 C 0.0 **** 0.0
11974 C 24.4378 96.249 4.25599 C 0.0 **** 0.0
11975 C 23.3517 95.8874 3.4707 C 0.0 **** 0.0
11976 C 22.7422 96.7223 2.50466 C 0.0 **** 0.0
11977 C 23.3365 98.0007 2.30683 C 0.0 **** 0.0
11978 C 24.171 98.5042 3.37546 C 0.0 **** 0.0
11979 C 23.2422 98.7057 0.966693 C 0.0 **** 0.0
11980 C 22.7124 97.785 -0.157191 C 0.0 **** 0.0
11981 C 21.6208 96.8603 0.328467 C 0.0 **** 0.0
11982 C 21.6489 96.3966 1.69835 C 0.0 **** 0.0
11983 C 23.8571 96.9107 -0.719684 C 0.0 **** 0.0
11984 C 25.0239 97.7333 -1.15246 C 0.0 **** 0.0
11985 C 25.5819 98.446 -0.00512371 C 0.0 **** 0.0
11986 C 24.5512 99.4121 0.53564 C 0.0 **** 0.0
11987 C 20.674 95.4845 2.14079 C 0.0 **** 0.0
11988 C 19.731 94.9945 1.21652 C 0.0 **** 0.0
11989 C 19.7379 95.3754 -0.128897 C 0.0 **** 0.0
11990 C 20.7986 96.2128 -0.580282 C 0.0 **** 0.0
11991 C 18.6412 94.87 -0.992316 C 0.0 **** 0.0
11992 C 17.78 93.7036 -0.568726 C 0.0 **** 0.0
11993 C 17.695 93.481 0.799397 C 0.0 **** 0.0
11994 C 18.5271 94.3167 1.70253 C 0.0 **** 0.0
11995 C 16.7405 92.4733 1.42933 C 0.0 **** 0.0
11996 C 15.9982 91.5055 0.440848 C 0.0 **** 0.0
11997 C 16.2366 91.7711 -0.988954 C 0.0 **** 0.0
11998 C 17.0138 92.9023 -1.45336 C 0.0 **** 0.0
11999 N 17.1219 93.1007 -2.80418 N 0.0 **** 0.0
12000 C 16.5011 92.3297 -3.7393 C 0.0 **** 0.0
12001 C 15.8087 91.1742 -3.31319 C 0.0 **** 0.0
12002 C 15.6833 90.8886 -1.92027 C 0.0 **** 0.0
12003 C 14.9442 89.6231 -1.57195 C 0.0 **** 0.0
12004 C 15.4479 88.4195 -2.39827 C 0.0 **** 0.0
12005 C 15.7305 88.767 -3.87293 C 0.0 **** 0.0
12006 C 15.3468 90.1857 -4.34401 C 0.0 **** 0.0
12007 C 15.8089 90.461 -5.81569 C 0.0 **** 0.0
12008 C 16.1995 91.8908 -6.15102 C 0.0 **** 0.0
12009 C 16.5047 92.7684 -5.07484 C 0.0 **** 0.0
12010 C 16.7545 94.0937 -5.40043 C 0.0 **** 0.0
12011 C 16.8839 94.5298 -6.69327 C 0.0 **** 0.0
12012 C 16.6727 93.6473 -7.76938 C 0.0 **** 0.0
12013 C 16.3461 92.2948 -7.50101 C 0.0 **** 0.0
12014 C 21.7735 92.4849 9.1761 C 0.0 **** 0.0
12015 C 21.4755 91.0745 8.82648 C 0.0 **** 0.0
12016 C 24.1508 92.5952 10.8726 C 0.0 **** 0.0
12017 C 22.042 93.0985 6.26896 C 0.0 **** 0.0
12018 C 26.6645 93.5792 9.86036 C 0.0 **** 0.0
12019 C 27.6467 97.6168 6.84865 C 0.0 **** 0.0
12020 C 26.9164 99.0408 4.28395 C 0.0 **** 0.0
12021 O 24.317 99.8783 3.59775 O 0.0 **** 0.0
12022 C 26.8906 99.2095 -0.323116 C 0.0 **** 0.0
12023 C 24.6454 98.4963 -2.43296 C 0.0 **** 0.0
12024 O 21.0206 96.5284 -1.96285 O 0.0 **** 0.0
12025 O 20.6278 95.2386 3.49035 O 0.0 **** 0.0
12026 O 18.0638 94.5367 2.78852 O 0.0 **** 0.0
12027 O 18.3363 95.5618 -1.95861 O 0.0 **** 0.0
12028 C 15.9624 91.437 -8.68286 C 0.0 **** 0.0
12029 C 16.8115 94.1777 -9.16493 C 0.0 **** 0.0
12030 H 25.6274 93.3014 4.84025 H 0.0 **** 0.0
12031 H 23.9828 93.4284 4.57474 H 0.0 **** 0.0
12032 H 26.9967 95.3639 7.95902 H 0.0 **** 0.0
12033 H 27.4991 94.1836 6.74121 H 0.0 **** 0.0
12034 H 22.9932 94.8831 3.50484 H 0.0 **** 0.0
12035 H 24.1905 96.1798 0.0582485 H 0.0 **** 0.0
12036 H 23.5363 96.2444 -1.53889 H 0.0 **** 0.0
12037 H 25.7842 96.9779 -1.44538 H 0.0 **** 0.0
12038 H 25.7942 97.73 0.822922 H 0.0 **** 0.0
12039 H 24.3158 100.116 -0.278666 H 0.0 **** 0.0
12040 H 24.9529 100.065 1.3327 H 0.0 **** 0.0
12041 H 17.2594 91.8412 2.19257 H 0.0 **** 0.0
12042 H 15.9625 93.0913 1.91606 H 0.0 **** 0.0
12043 H 14.8895 91.5056 0.721109 H 0.0 **** 0.0
12044 H 16.3991 90.4844 0.727973 H 0.0 **** 0.0
12045 H 14.8997 89.3804 -0.439539 H 0.0 **** 0.0
12046 H 13.8839 89.8138 -1.8525 H 0.0 **** 0.0
12047 H 14.6275 87.7018 -2.32601 H 0.0 **** 0.0
12048 H 16.344 87.9777 -1.91457 H 0.0 **** 0.0
12049 H 15.2655 88.0336 -4.56491 H 0.0 **** 0.0
12050 H 16.834 88.665 -4.05629 H 0.0 **** 0.0
12051 H 14.2436 90.1875 -4.33308 H 0.0 **** 0.0
12052 H 16.6844 89.8272 -6.07864 H 0.0 **** 0.0
12053 H 14.946 90.1685 -6.47707 H 0.0 **** 0.0
12054 H 16.812 94.7971 -4.58263 H 0.0 **** 0.0
12055 H 17.0806 95.583 -6.79644 H 0.0 **** 0.0
12056 H 21.0017 93.2153 8.81655 H 0.0 **** 0.0
12057 H 21.6815 92.6023 10.2368 H 0.0 **** 0.0
12058 H 22.1169 90.3759 9.37451 H 0.0 **** 0.0
12059 H 21.4613 90.8361 7.76959 H 0.0 **** 0.0
12060 H 20.4642 90.7802 9.06251 H 0.0 **** 0.0
12061 H 23.7043 91.5242 10.9691 H 0.0 **** 0.0
12062 H 23.4975 93.3473 11.3586 H 0.0 **** 0.0
12063 H 25.0474 92.599 11.4238 H 0.0 **** 0.0
12064 H 21.0506 93.162 6.78345 H 0.0 **** 0.0
12065 H 22.0413 92.1449 5.7303 H 0.0 **** 0.0
12066 H 22.0526 93.9393 5.51354 H 0.0 **** 0.0
12067 H 26.9334 92.6112 10.3105 H 0.0 **** 0.0
12068 H 26.5566 94.3837 10.6177 H 0.0 **** 0.0
12069 H 27.5825 93.748 9.25338 H 0.0 **** 0.0
12070 H 27.987 98.6505 6.73192 H 0.0 **** 0.0
12071 H 28.5348 97.0381 6.66863 H 0.0 **** 0.0
12072 H 27.2349 97.5227 7.91648 H 0.0 **** 0.0
12073 H 26.7348 99.314 3.16349 H 0.0 **** 0.0
12074 H 27.9241 98.6638 4.26888 H 0.0 **** 0.0
12075 H 26.872 99.9401 4.94348 H 0.0 **** 0.0
12076 H 23.6136 100.45 3.11768 H 0.0 **** 0.0
12077 H 27.71 98.5641 -0.685807 H 0.0 **** 0.0
12078 H 27.2828 99.719 0.59053 H 0.0 **** 0.0
12079 H 26.7348 99.9546 -1.16976 H 0.0 **** 0.0
12080 H 24.3364 97.768 -3.20443 H 0.0 **** 0.0
12081 H 25.494 99.0271 -2.88583 H 0.0 **** 0.0
12082 H 23.8665 99.2726 -2.37699 H 0.0 **** 0.0
12083 H 20.63 95.8102 -2.58305 H 0.0 **** 0.0
12084 H 20.217 94.3431 3.80562 H 0.0 **** 0.0
12085 H 16.1346 90.4066 -8.45318 H 0.0 **** 0.0
12086 H 16.5226 91.6155 -9.62916 H 0.0 **** 0.0
12087 H 14.8892 91.477 -8.93338 H 0.0 **** 0.0
12088 H 17.7837 93.7993 -9.56635 H 0.0 **** 0.0
12089 H 16.8454 95.2883 -9.09653 H 0.0 **** 0.0
12090 H 16.0448 93.9366 -9.84519 H 0.0 **** 0.0
12091 C 39.4096 86.2429 93.9656 C 0.0 **** 0.0
12092 C 38.0638 86.0466 94.3594 C 0.0 **** 0.0
12093 C 37.6849 84.8493 95.03 C 0.0 **** 0.0
12094 C 38.6898 83.9781 95.5026 C 0.0 **** 0.0
12095 C 40.053 84.1849 95.0964 C 0.0 **** 0.0
12096 C 40.3867 85.3185 94.3467 C 0.0 **** 0.0
12097 C 38.2827 82.9388 96.5742 C 0.0 **** 0.0
12098 C 36.8397 82.5182 96.6202 C 0.0 **** 0.0
12099 C 35.8911 83.1956 95.7924 C 0.0 **** 0.0
12100 C 36.1784 84.5669 95.2683 C 0.0 **** 0.0
12101 C 34.5949 82.6533 95.6712 C 0.0 **** 0.0
12102 C 34.2186 81.5137 96.3913 C 0.0 **** 0.0
12103 C 35.0488 81.0852 97.4379 C 0.0 **** 0.0
12104 C 36.387 81.5101 97.4853 C 0.0 **** 0.0
12105 C 37.2171 80.9608 98.5004 C 0.0 **** 0.0
12106 C 36.7191 80.0288 99.4567 C 0.0 **** 0.0
12107 C 35.4945 79.4047 99.1937 C 0.0 **** 0.0
12108 C 34.5858 80.1129 98.3634 C 0.0 **** 0.0
12109 C 35.0786 78.1855 99.9513 C 0.0 **** 0.0
12110 C 36.288 77.5874 100.771 C 0.0 **** 0.0
12111 C 37.1485 78.6009 101.418 C 0.0 **** 0.0
12112 C 37.348 79.8079 100.715 C 0.0 **** 0.0
12113 C 37.1282 76.4826 100.164 C 0.0 **** 0.0
12114 C 36.3973 75.5855 99.1968 C 0.0 **** 0.0
12115 C 34.9197 75.676 99.2728 C 0.0 **** 0.0
12116 C 34.4416 77.1609 98.9721 C 0.0 **** 0.0
12117 C 37.9442 80.8967 101.379 C 0.0 **** 0.0
12118 C 38.3065 80.7682 102.747 C 0.0 **** 0.0
12119 C 38.3973 79.49 103.342 C 0.0 **** 0.0
12120 C 37.7441 78.3973 102.693 C 0.0 **** 0.0
12121 C 39.0984 79.3527 104.647 C 0.0 **** 0.0
12122 C 39.6557 80.5795 105.306 C 0.0 **** 0.0
12123 C 39.145 81.8055 104.891 C 0.0 **** 0.0
12124 C 38.4596 81.9648 103.588 C 0.0 **** 0.0
12125 C 39.3761 83.0332 105.763 C 0.0 **** 0.0
12126 C 40.8152 83.0998 106.252 C 0.0 **** 0.0
12127 C 41.2684 81.7467 106.809 C 0.0 **** 0.0
12128 C 40.6794 80.5572 106.264 C 0.0 **** 0.0
12129 N 41.1252 79.3303 106.662 N 0.0 **** 0.0
12130 C 42.1766 79.2171 107.527 C 0.0 **** 0.0
12131 C 42.856 80.3596 108.009 C 0.0 **** 0.0
12132 C 42.3621 81.6533 107.714 C 0.0 **** 0.0
12133 C 42.9845 82.9072 108.361 C 0.0 **** 0.0
12134 C 44.0719 82.654 109.484 C 0.0 **** 0.0
12135 C 44.8557 81.3796 109.205 C 0.0 **** 0.0
12136 C 43.9082 80.1811 109.009 C 0.0 **** 0.0
12137 C 44.7634 78.9255 108.653 C 0.0 **** 0.0
12138 C 43.9788 77.7437 108.175 C 0.0 **** 0.0
12139 C 42.6799 77.9294 107.739 C 0.0 **** 0.0
12140 C 41.95 76.8332 107.261 C 0.0 **** 0.0
12141 C 42.4883 75.5589 107.297 C 0.0 **** 0.0
12142 C 43.8234 75.3679 107.672 C 0.0 **** 0.0
12143 C 44.5686 76.481 108.112 C 0.0 **** 0.0
12144 C 41.8318 85.5939 93.9381 C 0.0 **** 0.0
12145 C 42.1615 84.7102 92.7513 C 0.0 **** 0.0
12146 C 39.8098 87.5009 93.1238 C 0.0 **** 0.0
12147 C 41.0697 83.2511 95.6408 C 0.0 **** 0.0
12148 C 37.0364 87.1066 94.0996 C 0.0 **** 0.0
12149 C 33.5702 83.361 94.8516 C 0.0 **** 0.0
12150 C 33.1336 80.6479 95.7929 C 0.0 **** 0.0
12151 O 33.1982 79.9785 98.5321 O 0.0 **** 0.0
12152 C 34.3183 75.2287 100.596 C 0.0 **** 0.0
12153 C 36.9878 74.1596 99.2167 C 0.0 **** 0.0
12154 O 37.5929 77.2257 103.414 O 0.0 **** 0.0
12155 O 38.1223 82.0983 100.76 O 0.0 **** 0.0
12156 O 38.0319 83.0439 103.232 O 0.0 **** 0.0
12157 O 39.1853 78.2671 105.099 O 0.0 **** 0.0
12158 C 46.0377 76.3724 108.511 C 0.0 **** 0.0
12159 C 44.3685 73.9836 107.656 C 0.0 **** 0.0
12160 H 38.9068 82.023 96.4408 H 0.0 **** 0.0
12161 H 38.5628 83.3999 97.5751 H 0.0 **** 0.0
12162 H 35.9226 85.3449 96.0274 H 0.0 **** 0.0
12163 H 35.682 84.7566 94.3327 H 0.0 **** 0.0
12164 H 38.2679 81.2477 98.574 H 0.0 **** 0.0
12165 H 38.0673 76.8565 99.7247 H 0.0 **** 0.0
12166 H 37.4779 75.9161 101.054 H 0.0 **** 0.0
12167 H 36.6123 75.9788 98.2037 H 0.0 **** 0.0
12168 H 34.4811 75.0993 98.4236 H 0.0 **** 0.0
12169 H 33.3507 77.2061 99.1355 H 0.0 **** 0.0
12170 H 34.6355 77.3999 97.9148 H 0.0 **** 0.0
12171 H 39.1623 83.9901 105.209 H 0.0 **** 0.0
12172 H 38.7016 83.0722 106.633 H 0.0 **** 0.0
12173 H 40.7789 83.8548 106.999 H 0.0 **** 0.0
12174 H 41.5299 83.5051 105.415 H 0.0 **** 0.0
12175 H 43.4995 83.4883 107.583 H 0.0 **** 0.0
12176 H 42.1489 83.5279 108.804 H 0.0 **** 0.0
12177 H 43.5315 82.5307 110.431 H 0.0 **** 0.0
12178 H 44.7744 83.5194 109.601 H 0.0 **** 0.0
12179 H 45.5309 81.1964 110.07 H 0.0 **** 0.0
12180 H 45.4571 81.4909 108.288 H 0.0 **** 0.0
12181 H 43.4098 79.9953 109.987 H 0.0 **** 0.0
12182 H 45.554 79.1782 107.94 H 0.0 **** 0.0
12183 H 45.2648 78.6665 109.611 H 0.0 **** 0.0
12184 H 40.9309 76.8966 106.844 H 0.0 **** 0.0
12185 H 41.9162 74.7485 106.884 H 0.0 **** 0.0
12186 H 42.5524 85.5091 94.7605 H 0.0 **** 0.0
12187 H 41.9471 86.6481 93.6573 H 0.0 **** 0.0
12188 H 41.4331 84.8318 91.9349 H 0.0 **** 0.0
12189 H 42.1226 83.6187 93.0309 H 0.0 **** 0.0
12190 H 43.1514 85.0069 92.3933 H 0.0 **** 0.0
12191 H 40.3244 87.1995 92.2185 H 0.0 **** 0.0
12192 H 40.3413 88.1822 93.7802 H 0.0 **** 0.0
12193 H 38.9975 88.1574 92.7981 H 0.0 **** 0.0
12194 H 40.8366 82.2295 95.2475 H 0.0 **** 0.0
12195 H 41.0537 83.2226 96.7558 H 0.0 **** 0.0
12196 H 42.0761 83.4762 95.2801 H 0.0 **** 0.0
12197 H 37.4806 88.0466 94.5584 H 0.0 **** 0.0
12198 H 36.0427 87.0449 94.5497 H 0.0 **** 0.0
12199 H 36.9504 87.2449 93.0074 H 0.0 **** 0.0
12200 H 32.5049 83.0352 95.0681 H 0.0 **** 0.0
12201 H 33.8611 83.3172 93.7718 H 0.0 **** 0.0
12202 H 33.5018 84.4219 95.1518 H 0.0 **** 0.0
12203 H 33.2954 79.6187 96.1253 H 0.0 **** 0.0
12204 H 33.2004 80.6377 94.6871 H 0.0 **** 0.0
12205 H 32.1472 81.048 96.0426 H 0.0 **** 0.0
12206 H 32.8671 79.4024 99.3103 H 0.0 **** 0.0
12207 H 34.5811 74.1395 100.693 H 0.0 **** 0.0
12208 H 33.2057 75.2783 100.577 H 0.0 **** 0.0
12209 H 34.7488 75.7708 101.517 H 0.0 **** 0.0
12210 H 38.0992 74.185 99.0861 H 0.0 **** 0.0
12211 H 36.5254 73.5766 98.3644 H 0.0 **** 0.0
12212 H 36.7241 73.5979 100.141 H 0.0 **** 0.0
12213 H 36.8252 76.6649 103.113 H 0.0 **** 0.0
12214 H 38.9351 82.6959 101.034 H 0.0 **** 0.0
12215 H 46.6625 77.1366 108.001 H 0.0 **** 0.0
12216 H 46.4979 75.4064 108.264 H 0.0 **** 0.0
12217 H 46.0946 76.5288 109.6 H 0.0 **** 0.0
12218 H 45.2385 73.8554 106.896 H 0.0 **** 0.0
12219 H 43.6087 73.2639 107.286 H 0.0 **** 0.0
12220 H 44.7897 73.6858 108.641 H 0.0 **** 0.0
12221 C 99.9278 98.5299 61.556 C 0.0 **** 0.0
12222 C 100.206 97.3261 60.8217 C 0.0 **** 0.0
12223 C 99.2272 96.2919 60.739 C 0.0 **** 0.0
12224 C 97.975 96.4182 61.3785 C 0.0 **** 0.0
12225 C 97.6682 97.6228 62.0719 C 0.0 **** 0.0
12226 C 98.6341 98.6788 62.1508 C 0.0 **** 0.0
12227 C 96.9869 95.2989 61.3705 C 0.0 **** 0.0
12228 C 97.3287 93.9945 60.6871 C 0.0 **** 0.0
12229 C 98.596 93.8164 60.0611 C 0.0 **** 0.0
12230 C 99.5446 95.016 59.952 C 0.0 **** 0.0
12231 C 98.9507 92.5214 59.544 C 0.0 **** 0.0
12232 C 97.9821 91.4596 59.5752 C 0.0 **** 0.0
12233 C 96.7003 91.7464 60.0473 C 0.0 **** 0.0
12234 C 96.4055 92.9344 60.7285 C 0.0 **** 0.0
12235 C 95.1363 93.0926 61.3721 C 0.0 **** 0.0
12236 C 94.1829 92.0925 61.323 C 0.0 **** 0.0
12237 C 94.5671 90.855 60.7711 C 0.0 **** 0.0
12238 C 95.6898 90.7956 59.9051 C 0.0 **** 0.0
12239 C 93.7303 89.6076 61.053 C 0.0 **** 0.0
12240 C 92.7423 89.8118 62.2015 C 0.0 **** 0.0
12241 C 92.1039 91.1385 62.2127 C 0.0 **** 0.0
12242 C 92.8287 92.2633 61.7753 C 0.0 **** 0.0
12243 C 93.3315 89.5307 63.6266 C 0.0 **** 0.0
12244 C 94.8385 89.5089 63.629 C 0.0 **** 0.0
12245 C 95.4065 88.5163 62.7032 C 0.0 **** 0.0
12246 C 94.566 88.3782 61.3889 C 0.0 **** 0.0
12247 C 92.2665 93.5411 62.0548 C 0.0 **** 0.0
12248 C 91.1481 93.649 62.9756 C 0.0 **** 0.0
12249 C 90.3971 92.496 63.3072 C 0.0 **** 0.0
12250 C 90.8438 91.2263 62.8185 C 0.0 **** 0.0
12251 C 89.1704 92.6137 64.106 C 0.0 **** 0.0
12252 C 88.849 93.8577 64.8576 C 0.0 **** 0.0
12253 C 89.5332 95.0447 64.5157 C 0.0 **** 0.0
12254 C 90.6931 94.9794 63.5785 C 0.0 **** 0.0
12255 C 89.0969 96.3626 65.1589 C 0.0 **** 0.0
12256 C 88.6088 96.1378 66.6061 C 0.0 **** 0.0
12257 C 87.5811 95.0731 66.6843 C 0.0 **** 0.0
12258 C 87.7912 93.938 65.8464 C 0.0 **** 0.0
12259 N 86.935 92.9085 65.9401 N 0.0 **** 0.0
12260 C 85.8775 92.8371 66.7808 C 0.0 **** 0.0
12261 C 85.6276 93.9759 67.6091 C 0.0 **** 0.0
12262 C 86.4749 95.0813 67.5712 C 0.0 **** 0.0
12263 C 86.3004 96.2165 68.5684 C 0.0 **** 0.0
12264 C 84.8701 96.2714 69.1499 C 0.0 **** 0.0
12265 C 84.4758 94.8905 69.649 C 0.0 **** 0.0
12266 C 84.3782 93.9472 68.4569 C 0.0 **** 0.0
12267 C 84.0631 92.5666 68.9363 C 0.0 **** 0.0
12268 C 84.0382 91.5826 67.7887 C 0.0 **** 0.0
12269 C 85.0268 91.7175 66.7906 C 0.0 **** 0.0
12270 C 85.1622 90.7606 65.8216 C 0.0 **** 0.0
12271 C 84.2631 89.7178 65.7537 C 0.0 **** 0.0
12272 C 83.1974 89.6054 66.6594 C 0.0 **** 0.0
12273 C 83.0565 90.537 67.667 C 0.0 **** 0.0
12274 C 98.3303 100.01 62.8996 C 0.0 **** 0.0
12275 C 98.7629 99.9349 64.3614 C 0.0 **** 0.0
12276 C 100.971 99.617 61.6728 C 0.0 **** 0.0
12277 C 96.3512 97.7127 62.7435 C 0.0 **** 0.0
12278 C 101.407 97.3019 59.9454 C 0.0 **** 0.0
12279 C 100.298 92.258 58.8578 C 0.0 **** 0.0
12280 C 98.5099 90.045 59.429 C 0.0 **** 0.0
12281 O 95.7899 89.8405 58.8709 O 0.0 **** 0.0
12282 C 95.544 87.1381 63.3452 C 0.0 **** 0.0
12283 C 95.4499 89.4993 65.0697 C 0.0 **** 0.0
12284 O 90.0542 90.1077 63.0772 O 0.0 **** 0.0
12285 O 92.7672 94.7197 61.4512 O 0.0 **** 0.0
12286 O 91.2438 96.0378 63.2473 O 0.0 **** 0.0
12287 O 88.3669 91.701 64.0946 O 0.0 **** 0.0
12288 C 81.9745 90.3709 68.7152 C 0.0 **** 0.0
12289 C 82.2691 88.4438 66.4583 C 0.0 **** 0.0
12290 H 96.8486 95.0462 62.432 H 0.0 **** 0.0
12291 H 96.0481 95.711 60.934 H 0.0 **** 0.0
12292 H 99.6382 95.2074 58.8538 H 0.0 **** 0.0
12293 H 100.538 94.6651 60.3383 H 0.0 **** 0.0
12294 H 94.8683 93.9545 61.932 H 0.0 **** 0.0
12295 H 92.9409 90.2296 64.3405 H 0.0 **** 0.0
12296 H 92.9279 88.5611 63.9302 H 0.0 **** 0.0
12297 H 95.2033 90.4661 63.2486 H 0.0 **** 0.0
12298 H 96.4426 88.8179 62.3818 H 0.0 **** 0.0
12299 H 93.8328 87.5483 61.4833 H 0.0 **** 0.0
12300 H 95.1972 88.0535 60.5333 H 0.0 **** 0.0
12301 H 89.9423 97.0557 65.2026 H 0.0 **** 0.0
12302 H 88.2643 96.8554 64.596 H 0.0 **** 0.0
12303 H 88.2858 97.1204 67.0186 H 0.0 **** 0.0
12304 H 89.4565 95.7761 67.2118 H 0.0 **** 0.0
12305 H 87.0248 96.0992 69.434 H 0.0 **** 0.0
12306 H 86.39 97.1909 68.0314 H 0.0 **** 0.0
12307 H 84.2169 96.6344 68.3484 H 0.0 **** 0.0
12308 H 84.8674 97.0161 69.9555 H 0.0 **** 0.0
12309 H 83.5126 94.9123 70.1665 H 0.0 **** 0.0
12310 H 85.2725 94.5563 70.3762 H 0.0 **** 0.0
12311 H 83.5304 94.2333 67.8388 H 0.0 **** 0.0
12312 H 84.8739 92.2349 69.6677 H 0.0 **** 0.0
12313 H 83.0749 92.5944 69.4418 H 0.0 **** 0.0
12314 H 85.9213 90.8279 65.0724 H 0.0 **** 0.0
12315 H 84.4505 88.95 65.003 H 0.0 **** 0.0
12316 H 97.292 100.271 62.8643 H 0.0 **** 0.0
12317 H 98.8495 100.879 62.4504 H 0.0 **** 0.0
12318 H 97.9984 99.4083 64.9477 H 0.0 **** 0.0
12319 H 98.833 100.941 64.8468 H 0.0 **** 0.0
12320 H 99.7251 99.3506 64.4153 H 0.0 **** 0.0
12321 H 101.202 100.067 62.65 H 0.0 **** 0.0
12322 H 100.633 100.429 61.0087 H 0.0 **** 0.0
12323 H 101.964 99.3638 61.2583 H 0.0 **** 0.0
12324 H 95.6207 96.8907 62.6181 H 0.0 **** 0.0
12325 H 95.814 98.6065 62.3252 H 0.0 **** 0.0
12326 H 96.5388 97.7485 63.8177 H 0.0 **** 0.0
12327 H 101.57 96.3656 59.398 H 0.0 **** 0.0
12328 H 102.364 97.3304 60.533 H 0.0 **** 0.0
12329 H 101.352 98.098 59.1519 H 0.0 **** 0.0
12330 H 100.104 91.6404 57.9371 H 0.0 **** 0.0
12331 H 100.964 91.7479 59.5679 H 0.0 **** 0.0
12332 H 100.881 93.1749 58.5277 H 0.0 **** 0.0
12333 H 97.9623 89.3339 60.0219 H 0.0 **** 0.0
12334 H 99.5159 89.9898 59.8219 H 0.0 **** 0.0
12335 H 98.5013 89.7452 58.3802 H 0.0 **** 0.0
12336 H 94.9114 89.3499 58.7231 H 0.0 **** 0.0
12337 H 96.3166 87.1248 64.1535 H 0.0 **** 0.0
12338 H 95.7919 86.3627 62.6247 H 0.0 **** 0.0
12339 H 94.5879 86.9211 63.7603 H 0.0 **** 0.0
12340 H 95.158 90.4154 65.5502 H 0.0 **** 0.0
12341 H 96.5788 89.4947 65.1069 H 0.0 **** 0.0
12342 H 95.1448 88.6222 65.6408 H 0.0 **** 0.0
12343 H 90.3787 89.2431 62.6829 H 0.0 **** 0.0
12344 H 92.9929 94.6031 60.4547 H 0.0 **** 0.0
12345 H 82.4185 90.4291 69.7106 H 0.0 **** 0.0
12346 H 81.4279 89.4153 68.6801 H 0.0 **** 0.0
12347 H 81.2698 91.2148 68.6148 H 0.0 **** 0.0
12348 H 82.191 87.7818 67.3531 H 0.0 **** 0.0
12349 H 82.5704 87.7275 65.5907 H 0.0 **** 0.0
12350 H 81.2946 88.8628 66.2468 H 0.0 **** 0.0
12351 C 14.7187 91.6273 75.5165 C 0.0 **** 0.0
12352 C 13.3515 91.3269 75.2206 C 0.0 **** 0.0
12353 C 13.0089 90.0569 74.6928 C 0.0 **** 0.0
12354 C 13.8818 88.9872 74.7137 C 0.0 **** 0.0
12355 C 15.0892 89.1795 75.4003 C 0.0 **** 0.0
12356 C 15.5937 90.5288 75.64 C 0.0 **** 0.0
12357 C 13.5334 87.6468 74.0631 C 0.0 **** 0.0
12358 C 12.3505 87.5306 73.1703 C 0.0 **** 0.0
12359 C 11.417 88.5838 73.1953 C 0.0 **** 0.0
12360 C 11.6066 89.8377 74.0726 C 0.0 **** 0.0
12361 C 10.2445 88.4802 72.4026 C 0.0 **** 0.0
12362 C 9.97577 87.2914 71.6989 C 0.0 **** 0.0
12363 C 10.8704 86.1602 71.7517 C 0.0 **** 0.0
12364 C 12.0922 86.2832 72.4184 C 0.0 **** 0.0
12365 C 12.9906 85.1541 72.4455 C 0.0 **** 0.0
12366 C 12.6747 83.923 71.8288 C 0.0 **** 0.0
12367 C 11.522 83.939 70.9729 C 0.0 **** 0.0
12368 C 10.5186 84.9344 71.1286 C 0.0 **** 0.0
12369 C 11.3218 82.8289 69.9952 C 0.0 **** 0.0
12370 C 12.5665 81.9008 69.8262 C 0.0 **** 0.0
12371 C 13.2565 81.6405 71.0987 C 0.0 **** 0.0
12372 C 13.4475 82.7201 71.9999 C 0.0 **** 0.0
12373 C 13.5752 82.2915 68.6907 C 0.0 **** 0.0
12374 C 13.5109 83.7677 68.2968 C 0.0 **** 0.0
12375 C 12.1254 84.2352 67.9532 C 0.0 **** 0.0
12376 C 11.0033 83.2782 68.5407 C 0.0 **** 0.0
12377 C 14.2693 82.5387 73.1383 C 0.0 **** 0.0
12378 C 14.9824 81.3274 73.2962 C 0.0 **** 0.0
12379 C 14.6212 80.1997 72.4649 C 0.0 **** 0.0
12380 C 13.8935 80.4209 71.3096 C 0.0 **** 0.0
12381 C 15.0769 78.8745 72.9492 C 0.0 **** 0.0
12382 C 16.3206 78.7747 73.868 C 0.0 **** 0.0
12383 C 16.8305 79.964 74.4669 C 0.0 **** 0.0
12384 C 16.2194 81.2472 74.1498 C 0.0 **** 0.0
12385 C 17.7994 79.8496 75.6554 C 0.0 **** 0.0
12386 C 18.7673 78.7434 75.482 C 0.0 **** 0.0
12387 C 18.0181 77.4478 75.0904 C 0.0 **** 0.0
12388 C 16.8665 77.5192 74.2806 C 0.0 **** 0.0
12389 N 16.2869 76.4271 73.8609 N 0.0 **** 0.0
12390 C 16.7391 75.1801 74.1394 C 0.0 **** 0.0
12391 C 17.8613 75.0163 74.9571 C 0.0 **** 0.0
12392 C 18.5423 76.1842 75.4229 C 0.0 **** 0.0
12393 C 19.9161 76.0084 76.0744 C 0.0 **** 0.0
12394 C 20.1446 74.648 76.7713 C 0.0 **** 0.0
12395 C 19.6877 73.5266 75.9063 C 0.0 **** 0.0
12396 C 18.1926 73.6745 75.5514 C 0.0 **** 0.0
12397 C 17.7257 72.4909 74.678 C 0.0 **** 0.0
12398 C 16.4627 72.7274 73.8969 C 0.0 **** 0.0
12399 C 16.0807 74.0638 73.5839 C 0.0 **** 0.0
12400 C 14.9964 74.2657 72.7279 C 0.0 **** 0.0
12401 C 14.4087 73.1959 72.0707 C 0.0 **** 0.0
12402 C 14.9068 71.9337 72.2073 C 0.0 **** 0.0
12403 C 15.7194 71.6386 73.316 C 0.0 **** 0.0
12404 C 17.038 90.7576 76.1002 C 0.0 **** 0.0
12405 C 17.9885 90.3935 74.9632 C 0.0 **** 0.0
12406 C 15.1846 93.0648 75.4685 C 0.0 **** 0.0
12407 C 15.8083 87.9436 75.8219 C 0.0 **** 0.0
12408 C 12.3615 92.4697 75.195 C 0.0 **** 0.0
12409 C 9.27275 89.6601 72.3618 C 0.0 **** 0.0
12410 C 8.8263 87.3213 70.7247 C 0.0 **** 0.0
12411 O 9.19412 84.6535 70.6688 O 0.0 **** 0.0
12412 C 11.8575 84.4004 66.4619 C 0.0 **** 0.0
12413 C 14.6631 84.1335 67.3129 C 0.0 **** 0.0
12414 O 13.8942 79.5172 70.2393 O 0.0 **** 0.0
12415 O 14.1922 83.3842 74.2542 O 0.0 **** 0.0
12416 O 16.7926 82.2712 74.4603 O 0.0 **** 0.0
12417 O 14.4861 77.8831 72.5877 O 0.0 **** 0.0
12418 C 15.9924 70.2453 73.685 C 0.0 **** 0.0
12419 C 14.5359 70.8829 71.1722 C 0.0 **** 0.0
12420 H 14.4172 87.3792 73.4202 H 0.0 **** 0.0
12421 H 13.4033 86.8929 74.8379 H 0.0 **** 0.0
12422 H 10.884 89.8185 74.9588 H 0.0 **** 0.0
12423 H 11.4646 90.7176 73.4263 H 0.0 **** 0.0
12424 H 13.9941 85.285 72.8938 H 0.0 **** 0.0
12425 H 14.6089 81.9702 69.0178 H 0.0 **** 0.0
12426 H 13.2609 81.7391 67.7874 H 0.0 **** 0.0
12427 H 13.8024 84.2921 69.2112 H 0.0 **** 0.0
12428 H 12.037 85.2486 68.4337 H 0.0 **** 0.0
12429 H 10.8922 82.3973 67.9125 H 0.0 **** 0.0
12430 H 10.0489 83.8285 68.4485 H 0.0 **** 0.0
12431 H 18.4343 80.7877 75.7619 H 0.0 **** 0.0
12432 H 17.24 79.6953 76.6112 H 0.0 **** 0.0
12433 H 19.2199 78.5893 76.4301 H 0.0 **** 0.0
12434 H 19.5064 79.014 74.6775 H 0.0 **** 0.0
12435 H 20.7111 76.1623 75.3016 H 0.0 **** 0.0
12436 H 20.1321 76.7563 76.8262 H 0.0 **** 0.0
12437 H 19.5916 74.6742 77.7496 H 0.0 **** 0.0
12438 H 21.2319 74.5589 76.9569 H 0.0 **** 0.0
12439 H 19.862 72.5549 76.4033 H 0.0 **** 0.0
12440 H 20.3058 73.475 74.9707 H 0.0 **** 0.0
12441 H 17.5633 73.619 76.4621 H 0.0 **** 0.0
12442 H 18.5736 72.3047 73.9828 H 0.0 **** 0.0
12443 H 17.6768 71.5831 75.2677 H 0.0 **** 0.0
12444 H 14.6817 75.2763 72.4152 H 0.0 **** 0.0
12445 H 13.5988 73.4377 71.3821 H 0.0 **** 0.0
12446 H 17.3112 90.1143 77.0038 H 0.0 **** 0.0
12447 H 17.2946 91.7556 76.4381 H 0.0 **** 0.0
12448 H 19.0855 90.6397 75.194 H 0.0 **** 0.0
12449 H 17.6923 90.7795 73.9776 H 0.0 **** 0.0
12450 H 17.9567 89.3107 74.8019 H 0.0 **** 0.0
12451 H 14.7889 93.5165 74.5383 H 0.0 **** 0.0
12452 H 16.2583 93.1538 75.2702 H 0.0 **** 0.0
12453 H 14.9294 93.5914 76.3877 H 0.0 **** 0.0
12454 H 16.2385 87.3707 74.9821 H 0.0 **** 0.0
12455 H 15.1368 87.3042 76.4021 H 0.0 **** 0.0
12456 H 16.6478 88.1216 76.53 H 0.0 **** 0.0
12457 H 11.3191 92.1197 75.4122 H 0.0 **** 0.0
12458 H 12.3212 92.8853 74.1837 H 0.0 **** 0.0
12459 H 12.5821 93.3336 75.8688 H 0.0 **** 0.0
12460 H 8.2171 89.3358 72.2866 H 0.0 **** 0.0
12461 H 9.53516 90.3939 71.5251 H 0.0 **** 0.0
12462 H 9.21232 90.1495 73.3736 H 0.0 **** 0.0
12463 H 9.08704 86.8976 69.719 H 0.0 **** 0.0
12464 H 8.44807 88.2983 70.4551 H 0.0 **** 0.0
12465 H 7.99184 86.7618 71.1698 H 0.0 **** 0.0
12466 H 9.01341 83.6456 70.6225 H 0.0 **** 0.0
12467 H 12.3957 85.2768 66.0901 H 0.0 **** 0.0
12468 H 10.7788 84.5845 66.2545 H 0.0 **** 0.0
12469 H 12.113 83.4754 65.9275 H 0.0 **** 0.0
12470 H 15.6591 83.8933 67.6936 H 0.0 **** 0.0
12471 H 14.6622 85.2162 67.1713 H 0.0 **** 0.0
12472 H 14.5051 83.5563 66.4266 H 0.0 **** 0.0
12473 H 14.6212 78.8186 70.3112 H 0.0 **** 0.0
12474 H 14.5961 83.0208 75.1183 H 0.0 **** 0.0
12475 H 16.9376 69.8404 73.1851 H 0.0 **** 0.0
12476 H 15.1163 69.5889 73.4436 H 0.0 **** 0.0
12477 H 16.0429 70.1724 74.7935 H 0.0 **** 0.0
12478 H 14.2163 71.4228 70.2354 H 0.0 **** 0.0
12479 H 13.7801 70.1656 71.5941 H 0.0 **** 0.0
12480 H 15.4887 70.3252 70.9408 H 0.0 **** 0.0
12481 C 98.9036 20.0921 68.6957 C 0.0 **** 0.0
12482 C 97.5234 20.1479 68.3313 C 0.0 **** 0.0
12483 C 96.9561 19.1439 67.4761 C 0.0 **** 0.0
12484 C 97.7225 18.0411 67.0789 C 0.0 **** 0.0
12485 C 98.9996 17.8567 67.6571 C 0.0 **** 0.0
12486 C 99.6277 18.8922 68.4387 C 0.0 **** 0.0
12487 C 97.1021 16.9809 66.1172 C 0.0 **** 0.0
12488 C 95.8001 17.2554 65.4375 C 0.0 **** 0.0
12489 C 95.0189 18.3234 65.9221 C 0.0 **** 0.0
12490 C 95.5087 19.2765 67.0031 C 0.0 **** 0.0
12491 C 93.7684 18.6522 65.3371 C 0.0 **** 0.0
12492 C 93.3167 17.9044 64.2284 C 0.0 **** 0.0
12493 C 93.9497 16.6666 63.9187 C 0.0 **** 0.0
12494 C 95.2783 16.4007 64.4042 C 0.0 **** 0.0
12495 C 95.9381 15.2714 63.8944 C 0.0 **** 0.0
12496 C 95.3784 14.4872 62.8423 C 0.0 **** 0.0
12497 C 94.0739 14.8119 62.3547 C 0.0 **** 0.0
12498 C 93.3048 15.762 63.0675 C 0.0 **** 0.0
12499 C 93.5539 14.1703 61.0751 C 0.0 **** 0.0
12500 C 94.6366 13.4522 60.2798 C 0.0 **** 0.0
12501 C 95.5415 12.6682 61.226 C 0.0 **** 0.0
12502 C 95.9619 13.2234 62.4563 C 0.0 **** 0.0
12503 C 95.3993 14.3262 59.2937 C 0.0 **** 0.0
12504 C 95.1764 15.8528 59.4692 C 0.0 **** 0.0
12505 C 93.7312 16.1632 59.4234 C 0.0 **** 0.0
12506 C 92.8186 15.1437 60.1179 C 0.0 **** 0.0
12507 C 96.8048 12.3715 63.2856 C 0.0 **** 0.0
12508 C 97.0939 11.0374 62.8648 C 0.0 **** 0.0
12509 C 96.4652 10.4708 61.7582 C 0.0 **** 0.0
12510 C 95.8733 11.3476 60.8338 C 0.0 **** 0.0
12511 C 96.4153 9.00492 61.6194 C 0.0 **** 0.0
12512 C 97.1113 8.11408 62.5707 C 0.0 **** 0.0
12513 C 98.0485 8.69384 63.4175 C 0.0 **** 0.0
12514 C 98.0597 10.1384 63.5973 C 0.0 **** 0.0
12515 C 98.8883 7.81007 64.3346 C 0.0 **** 0.0
12516 C 98.9657 6.36159 63.8602 C 0.0 **** 0.0
12517 C 97.6238 5.83549 63.3704 C 0.0 **** 0.0
12518 C 96.8498 6.72472 62.5998 C 0.0 **** 0.0
12519 N 95.8216 6.21049 61.8709 N 0.0 **** 0.0
12520 C 95.4748 4.89675 61.8715 C 0.0 **** 0.0
12521 C 96.2351 3.96928 62.6407 C 0.0 **** 0.0
12522 C 97.2939 4.44779 63.3926 C 0.0 **** 0.0
12523 C 98.0923 3.50885 64.2859 C 0.0 **** 0.0
12524 C 97.3935 2.14643 64.5913 C 0.0 **** 0.0
12525 C 96.6364 1.55533 63.4133 C 0.0 **** 0.0
12526 C 95.6434 2.56883 62.8588 C 0.0 **** 0.0
12527 C 94.9308 2.03834 61.6113 C 0.0 **** 0.0
12528 C 94.1275 3.08168 60.8338 C 0.0 **** 0.0
12529 C 94.3707 4.46295 61.0686 C 0.0 **** 0.0
12530 C 93.5992 5.42498 60.4098 C 0.0 **** 0.0
12531 C 92.5466 5.03662 59.5787 C 0.0 **** 0.0
12532 C 92.3772 3.69366 59.2593 C 0.0 **** 0.0
12533 C 93.2078 2.68368 59.8641 C 0.0 **** 0.0
12534 C 101.0 18.6626 69.0002 C 0.0 **** 0.0
12535 C 102.16 18.9878 67.9896 C 0.0 **** 0.0
12536 C 99.6164 21.287 69.1717 C 0.0 **** 0.0
12537 C 99.7702 16.5327 67.6307 C 0.0 **** 0.0
12538 C 96.7009 21.3164 68.7368 C 0.0 **** 0.0
12539 C 92.8934 19.7447 65.8779 C 0.0 **** 0.0
12540 C 92.2445 18.5211 63.3319 C 0.0 **** 0.0
12541 O 91.9089 15.6159 63.1484 O 0.0 **** 0.0
12542 C 93.2033 16.3728 57.9873 C 0.0 **** 0.0
12543 C 96.0544 16.6821 58.605 C 0.0 **** 0.0
12544 O 95.6323 11.0293 59.4907 O 0.0 **** 0.0
12545 O 97.3486 12.825 64.503 O 0.0 **** 0.0
12546 O 98.9395 10.654 64.2517 O 0.0 **** 0.0
12547 O 95.7791 8.51373 60.6807 O 0.0 **** 0.0
12548 C 93.0944 1.25049 59.4603 C 0.0 **** 0.0
12549 C 91.3137 3.30823 58.2501 C 0.0 **** 0.0
12550 H 97.8002 16.863 65.2908 H 0.0 **** 0.0
12551 H 96.9887 16.0376 66.7552 H 0.0 **** 0.0
12552 H 94.8051 19.075 67.8568 H 0.0 **** 0.0
12553 H 95.4225 20.3325 66.655 H 0.0 **** 0.0
12554 H 96.9604 15.1345 64.1818 H 0.0 **** 0.0
12555 H 96.4547 14.0783 59.3417 H 0.0 **** 0.0
12556 H 95.0465 14.0303 58.2607 H 0.0 **** 0.0
12557 H 95.6274 16.0581 60.5148 H 0.0 **** 0.0
12558 H 93.6064 17.1404 59.9786 H 0.0 **** 0.0
12559 H 92.3698 14.4378 59.3522 H 0.0 **** 0.0
12560 H 91.9634 15.6643 60.5992 H 0.0 **** 0.0
12561 H 99.9699 8.16524 64.413 H 0.0 **** 0.0
12562 H 98.5078 7.86484 65.3845 H 0.0 **** 0.0
12563 H 99.3896 5.78903 64.6879 H 0.0 **** 0.0
12564 H 99.7007 6.33671 63.0367 H 0.0 **** 0.0
12565 H 99.0483 3.31688 63.7401 H 0.0 **** 0.0
12566 H 98.3548 3.96318 65.2927 H 0.0 **** 0.0
12567 H 96.6591 2.26412 65.4494 H 0.0 **** 0.0
12568 H 98.1791 1.41171 64.9062 H 0.0 **** 0.0
12569 H 96.0831 0.659943 63.7534 H 0.0 **** 0.0
12570 H 97.3305 1.22562 62.6242 H 0.0 **** 0.0
12571 H 94.8549 2.69795 63.6157 H 0.0 **** 0.0
12572 H 95.6818 1.61749 60.905 H 0.0 **** 0.0
12573 H 94.2575 1.22203 61.9403 H 0.0 **** 0.0
12574 H 93.7181 6.46114 60.639 H 0.0 **** 0.0
12575 H 91.9437 5.72967 59.0139 H 0.0 **** 0.0
12576 H 101.149 17.6745 69.4376 H 0.0 **** 0.0
12577 H 101.134 19.2902 69.9322 H 0.0 **** 0.0
12578 H 102.3 20.0909 67.9202 H 0.0 **** 0.0
12579 H 101.92 18.7082 66.9493 H 0.0 **** 0.0
12580 H 103.114 18.4751 68.3097 H 0.0 **** 0.0
12581 H 99.1258 22.2077 68.7698 H 0.0 **** 0.0
12582 H 100.648 21.3133 68.7695 H 0.0 **** 0.0
12583 H 99.6707 21.3018 70.2543 H 0.0 **** 0.0
12584 H 99.3556 15.7708 66.9063 H 0.0 **** 0.0
12585 H 99.6958 16.0282 68.5973 H 0.0 **** 0.0
12586 H 100.826 16.7031 67.3734 H 0.0 **** 0.0
12587 H 96.5601 22.0368 67.9206 H 0.0 **** 0.0
12588 H 97.1593 21.9074 69.5419 H 0.0 **** 0.0
12589 H 95.7179 21.0475 69.148 H 0.0 **** 0.0
12590 H 91.8949 19.9245 65.3547 H 0.0 **** 0.0
12591 H 93.4025 20.7321 65.8997 H 0.0 **** 0.0
12592 H 92.5858 19.4154 66.9108 H 0.0 **** 0.0
12593 H 92.0726 17.9917 62.3441 H 0.0 **** 0.0
12594 H 92.4285 19.5906 63.0786 H 0.0 **** 0.0
12595 H 91.304 18.3589 63.8409 H 0.0 **** 0.0
12596 H 91.5188 14.8172 62.6308 H 0.0 **** 0.0
12597 H 93.5935 17.4012 57.6626 H 0.0 **** 0.0
12598 H 92.0725 16.3626 57.9019 H 0.0 **** 0.0
12599 H 93.5961 15.5894 57.3259 H 0.0 **** 0.0
12600 H 97.1252 16.5424 58.8742 H 0.0 **** 0.0
12601 H 95.8276 17.7452 58.7439 H 0.0 **** 0.0
12602 H 96.0072 16.4798 57.4825 H 0.0 **** 0.0
12603 H 96.1303 10.1814 59.2136 H 0.0 **** 0.0
12604 H 97.2579 12.1276 65.2052 H 0.0 **** 0.0
12605 H 92.4498 1.09501 58.6123 H 0.0 **** 0.0
12606 H 92.6667 0.633158 60.29 H 0.0 **** 0.0
12607 H 94.1154 0.793275 59.2357 H 0.0 **** 0.0
12608 H 91.7158 2.65809 57.472 H 0.0 **** 0.0
12609 H 90.8241 4.23028 57.844 H 0.0 **** 0.0
12610 H 90.4364 2.75465 58.6474 H 0.0 **** 0.0
12611 C 71.257 22.8273 93.9601 C 0.0 **** 0.0
12612 C 69.8913 22.994 94.2544 C 0.0 **** 0.0
12613 C 69.0156 23.54 93.2437 C 0.0 **** 0.0
12614 C 69.5522 24.0619 92.0549 C 0.0 **** 0.0
12615 C 70.9606 24.0153 91.8737 C 0.0 **** 0.0
12616 C 71.8066 23.3326 92.7767 C 0.0 **** 0.0
12617 C 68.617 24.556 90.9425 C 0.0 **** 0.0
12618 C 67.0997 24.3882 91.1262 C 0.0 **** 0.0
12619 C 66.6215 23.8516 92.3291 C 0.0 **** 0.0
12620 C 67.5505 23.408 93.4269 C 0.0 **** 0.0
12621 C 65.247 23.5984 92.4758 C 0.0 **** 0.0
12622 C 64.3282 23.9608 91.4355 C 0.0 **** 0.0
12623 C 64.8182 24.7451 90.3348 C 0.0 **** 0.0
12624 C 66.2346 24.7722 90.1435 C 0.0 **** 0.0
12625 C 66.6819 25.2045 88.8573 C 0.0 **** 0.0
12626 C 65.8324 25.7315 87.9177 C 0.0 **** 0.0
12627 C 64.5444 26.0896 88.3445 C 0.0 **** 0.0
12628 C 63.9719 25.4167 89.4125 C 0.0 **** 0.0
12629 C 63.8074 27.2233 87.5994 C 0.0 **** 0.0
12630 C 64.4693 27.7159 86.2816 C 0.0 **** 0.0
12631 C 65.5263 26.7476 85.7147 C 0.0 **** 0.0
12632 C 66.1874 25.8574 86.5902 C 0.0 **** 0.0
12633 C 65.061 29.1697 86.3787 C 0.0 **** 0.0
12634 C 65.8472 29.3501 87.7194 C 0.0 **** 0.0
12635 C 64.9623 29.2257 88.9466 C 0.0 **** 0.0
12636 C 63.6264 28.4572 88.5494 C 0.0 **** 0.0
12637 C 67.1503 24.9774 86.0496 C 0.0 **** 0.0
12638 C 67.7743 25.3343 84.8315 C 0.0 **** 0.0
12639 C 67.2285 26.3653 84.0387 C 0.0 **** 0.0
12640 C 65.9859 26.9429 84.3992 C 0.0 **** 0.0
12641 C 67.9709 26.7187 82.8263 C 0.0 **** 0.0
12642 C 68.9808 25.7778 82.2183 C 0.0 **** 0.0
12643 C 69.5395 24.8271 83.0837 C 0.0 **** 0.0
12644 C 69.0793 24.7819 84.4894 C 0.0 **** 0.0
12645 C 70.6567 23.9215 82.6317 C 0.0 **** 0.0
12646 C 70.4555 23.5598 81.1469 C 0.0 **** 0.0
12647 C 70.2499 24.7998 80.3417 C 0.0 **** 0.0
12648 C 69.4587 25.8654 80.9069 C 0.0 **** 0.0
12649 N 69.1427 26.9794 80.1834 N 0.0 **** 0.0
12650 C 69.5697 27.1284 78.9191 C 0.0 **** 0.0
12651 C 70.4302 26.1726 78.3474 C 0.0 **** 0.0
12652 C 70.7424 24.98 79.0073 C 0.0 **** 0.0
12653 C 71.5994 23.9069 78.3694 C 0.0 **** 0.0
12654 C 71.9535 24.1349 76.8927 C 0.0 **** 0.0
12655 C 72.1595 25.6484 76.6321 C 0.0 **** 0.0
12656 C 70.8542 26.4001 76.9407 C 0.0 **** 0.0
12657 C 70.9903 27.9071 76.6208 C 0.0 **** 0.0
12658 C 69.7411 28.7064 77.0257 C 0.0 **** 0.0
12659 C 69.0945 28.2647 78.1968 C 0.0 **** 0.0
12660 C 68.012 29.0502 78.6929 C 0.0 **** 0.0
12661 C 67.6927 30.2317 78.067 C 0.0 **** 0.0
12662 C 68.2714 30.6596 76.8762 C 0.0 **** 0.0
12663 C 69.3039 29.8603 76.3213 C 0.0 **** 0.0
12664 C 73.299 23.0882 92.4769 C 0.0 **** 0.0
12665 C 74.147 24.2106 93.0618 C 0.0 **** 0.0
12666 C 72.1362 22.0155 94.9196 C 0.0 **** 0.0
12667 C 71.5303 24.5119 90.5324 C 0.0 **** 0.0
12668 C 69.4144 22.6006 95.6125 C 0.0 **** 0.0
12669 C 64.6829 23.0778 93.7838 C 0.0 **** 0.0
12670 C 62.8703 23.5179 91.5132 C 0.0 **** 0.0
12671 O 62.6065 25.5066 89.622 O 0.0 **** 0.0
12672 C 64.5937 30.5652 89.6048 C 0.0 **** 0.0
12673 C 66.7704 30.6065 87.6807 C 0.0 **** 0.0
12674 O 65.334 27.8524 83.5358 O 0.0 **** 0.0
12675 O 67.4951 23.8053 86.7252 O 0.0 **** 0.0
12676 O 69.8329 24.4298 85.383 O 0.0 **** 0.0
12677 O 67.8945 27.8734 82.4409 O 0.0 **** 0.0
12678 C 69.8495 30.1741 74.9202 C 0.0 **** 0.0
12679 C 67.6389 31.817 76.0878 C 0.0 **** 0.0
12680 H 68.8118 25.6532 90.7126 H 0.0 **** 0.0
12681 H 68.8783 23.9414 90.0741 H 0.0 **** 0.0
12682 H 67.2922 22.3382 93.6415 H 0.0 **** 0.0
12683 H 67.3168 23.9926 94.2355 H 0.0 **** 0.0
12684 H 67.7319 25.2868 88.6755 H 0.0 **** 0.0
12685 H 65.766 29.3484 85.5421 H 0.0 **** 0.0
12686 H 64.246 29.9585 86.3852 H 0.0 **** 0.0
12687 H 66.4975 28.4771 87.7838 H 0.0 **** 0.0
12688 H 65.4251 28.6318 89.7345 H 0.0 **** 0.0
12689 H 62.8729 29.145 88.1122 H 0.0 **** 0.0
12690 H 63.2237 28.1246 89.4972 H 0.0 **** 0.0
12691 H 71.703 24.4096 82.7963 H 0.0 **** 0.0
12692 H 70.7109 23.0046 83.2939 H 0.0 **** 0.0
12693 H 69.5188 22.8957 81.1095 H 0.0 **** 0.0
12694 H 71.325 22.9549 80.8157 H 0.0 **** 0.0
12695 H 72.5186 23.8848 78.9698 H 0.0 **** 0.0
12696 H 71.0995 22.9237 78.4402 H 0.0 **** 0.0
12697 H 71.1472 23.7384 76.2176 H 0.0 **** 0.0
12698 H 72.886 23.609 76.5649 H 0.0 **** 0.0
12699 H 72.3316 25.7396 75.5534 H 0.0 **** 0.0
12700 H 73.0586 26.0325 77.2059 H 0.0 **** 0.0
12701 H 70.0262 25.9844 76.309 H 0.0 **** 0.0
12702 H 71.8268 28.3165 77.2244 H 0.0 **** 0.0
12703 H 71.3361 28.0683 75.5332 H 0.0 **** 0.0
12704 H 67.4964 28.7482 79.5441 H 0.0 **** 0.0
12705 H 66.8444 30.8166 78.5093 H 0.0 **** 0.0
12706 H 73.4855 23.0502 91.3331 H 0.0 **** 0.0
12707 H 73.6742 22.0755 92.8269 H 0.0 **** 0.0
12708 H 73.8609 24.4076 94.0944 H 0.0 **** 0.0
12709 H 74.0651 25.1331 92.4427 H 0.0 **** 0.0
12710 H 75.228 23.9623 93.0076 H 0.0 **** 0.0
12711 H 71.658 21.5557 95.7689 H 0.0 **** 0.0
12712 H 72.9477 22.6596 95.2725 H 0.0 **** 0.0
12713 H 72.4753 21.0978 94.3864 H 0.0 **** 0.0
12714 H 71.0024 25.437 90.2199 H 0.0 **** 0.0
12715 H 71.2884 23.7712 89.7857 H 0.0 **** 0.0
12716 H 72.5685 24.8115 90.558 H 0.0 **** 0.0
12717 H 68.3524 22.6786 95.7386 H 0.0 **** 0.0
12718 H 69.996 23.2082 96.3171 H 0.0 **** 0.0
12719 H 69.6177 21.5607 95.8746 H 0.0 **** 0.0
12720 H 64.4223 22.0043 93.6791 H 0.0 **** 0.0
12721 H 63.8108 23.7021 94.1072 H 0.0 **** 0.0
12722 H 65.384 23.1219 94.6129 H 0.0 **** 0.0
12723 H 62.2483 24.325 92.0213 H 0.0 **** 0.0
12724 H 62.7664 22.5355 91.9849 H 0.0 **** 0.0
12725 H 62.495 23.3861 90.4768 H 0.0 **** 0.0
12726 H 62.0555 26.0451 88.9853 H 0.0 **** 0.0
12727 H 65.4882 31.1668 89.9072 H 0.0 **** 0.0
12728 H 64.0178 30.3893 90.5364 H 0.0 **** 0.0
12729 H 63.8465 31.1318 89.0018 H 0.0 **** 0.0
12730 H 67.5105 30.522 86.8322 H 0.0 **** 0.0
12731 H 67.3833 30.6723 88.6367 H 0.0 **** 0.0
12732 H 66.248 31.5657 87.5994 H 0.0 **** 0.0
12733 H 65.4992 27.723 82.5459 H 0.0 **** 0.0
12734 H 67.8083 23.0871 86.1096 H 0.0 **** 0.0
12735 H 70.9372 30.4117 75.1152 H 0.0 **** 0.0
12736 H 69.4277 31.0968 74.4279 H 0.0 **** 0.0
12737 H 69.8764 29.2826 74.2275 H 0.0 **** 0.0
12738 H 68.2933 32.748 76.2869 H 0.0 **** 0.0
12739 H 66.6948 32.1244 76.527 H 0.0 **** 0.0
12740 H 67.4396 31.5574 75.0356 H 0.0 **** 0.0
12741 C 78.323 60.6779 52.5233 C 0.0 **** 0.0
12742 C 78.9012 60.2773 51.2713 C 0.0 **** 0.0
12743 C 78.5066 61.0062 50.0854 C 0.0 **** 0.0
12744 C 77.8051 62.2076 50.1949 C 0.0 **** 0.0
12745 C 77.3142 62.616 51.4348 C 0.0 **** 0.0
12746 C 77.3448 61.6694 52.4942 C 0.0 **** 0.0
12747 C 77.7181 63.1262 48.9737 C 0.0 **** 0.0
12748 C 77.9891 62.5256 47.6092 C 0.0 **** 0.0
12749 C 78.4739 61.219 47.4911 C 0.0 **** 0.0
12750 C 78.9308 60.4844 48.7462 C 0.0 **** 0.0
12751 C 78.5948 60.616 46.2025 C 0.0 **** 0.0
12752 C 78.2565 61.4017 45.0756 C 0.0 **** 0.0
12753 C 78.1317 62.8356 45.2175 C 0.0 **** 0.0
12754 C 77.9391 63.384 46.4617 C 0.0 **** 0.0
12755 C 77.7712 64.7857 46.5618 C 0.0 **** 0.0
12756 C 77.7254 65.6303 45.384 C 0.0 **** 0.0
12757 C 78.0199 65.0178 44.149 C 0.0 **** 0.0
12758 C 78.3583 63.6631 44.0943 C 0.0 **** 0.0
12759 C 77.8085 65.759 42.8935 C 0.0 **** 0.0
12760 C 78.4104 67.1699 42.9582 C 0.0 **** 0.0
12761 C 78.0025 67.8739 44.2592 C 0.0 **** 0.0
12762 C 77.6327 67.0771 45.4454 C 0.0 **** 0.0
12763 C 78.1947 67.9022 41.6052 C 0.0 **** 0.0
12764 C 76.8207 67.6972 40.9433 C 0.0 **** 0.0
12765 C 76.3899 66.2851 40.9193 C 0.0 **** 0.0
12766 C 76.381 65.6938 42.3298 C 0.0 **** 0.0
12767 C 77.2667 67.7851 46.6196 C 0.0 **** 0.0
12768 C 77.3535 69.2186 46.6628 C 0.0 **** 0.0
12769 C 77.7983 69.9467 45.572 C 0.0 **** 0.0
12770 C 78.213 69.2516 44.3905 C 0.0 **** 0.0
12771 C 77.6224 71.4147 45.5431 C 0.0 **** 0.0
12772 C 77.0898 72.1843 46.7172 C 0.0 **** 0.0
12773 C 76.7434 71.4439 47.8816 C 0.0 **** 0.0
12774 C 77.0575 69.9931 47.9266 C 0.0 **** 0.0
12775 C 76.2369 72.2029 49.0872 C 0.0 **** 0.0
12776 C 75.3554 73.3679 48.6321 C 0.0 **** 0.0
12777 C 76.0036 74.1927 47.6082 C 0.0 **** 0.0
12778 C 76.834 73.5512 46.648 C 0.0 **** 0.0
12779 N 77.2921 74.2754 45.5938 N 0.0 **** 0.0
12780 C 76.9693 75.5505 45.3331 C 0.0 **** 0.0
12781 C 76.107 76.2425 46.2126 C 0.0 **** 0.0
12782 C 75.6353 75.5844 47.3786 C 0.0 **** 0.0
12783 C 74.7912 76.2939 48.401 C 0.0 **** 0.0
12784 C 74.3876 77.7325 48.0752 C 0.0 **** 0.0
12785 C 74.2903 77.9444 46.5628 C 0.0 **** 0.0
12786 C 75.6258 77.6448 45.8451 C 0.0 **** 0.0
12787 C 75.5178 77.8572 44.3097 C 0.0 **** 0.0
12788 C 76.8128 77.2819 43.6106 C 0.0 **** 0.0
12789 C 77.4417 76.1452 44.1306 C 0.0 **** 0.0
12790 C 78.5942 75.6369 43.4837 C 0.0 **** 0.0
12791 C 79.0613 76.2135 42.3138 C 0.0 **** 0.0
12792 C 78.3949 77.3157 41.7814 C 0.0 **** 0.0
12793 C 77.2504 77.854 42.4161 C 0.0 **** 0.0
12794 C 76.238 61.7248 53.5066 C 0.0 **** 0.0
12795 C 74.8834 61.703 52.8131 C 0.0 **** 0.0
12796 C 78.6732 60.0181 53.8245 C 0.0 **** 0.0
12797 C 76.6094 63.9621 51.5807 C 0.0 **** 0.0
12798 C 79.836 59.0772 51.1975 C 0.0 **** 0.0
12799 C 78.8799 59.1226 46.0815 C 0.0 **** 0.0
12800 C 77.9955 60.68 43.7767 C 0.0 **** 0.0
12801 O 78.9055 63.1019 42.9708 O 0.0 **** 0.0
12802 C 77.213 65.3978 39.9863 C 0.0 **** 0.0
12803 C 76.7689 68.3598 39.5627 C 0.0 **** 0.0
12804 O 79.098 69.9146 43.5309 O 0.0 **** 0.0
12805 O 76.6272 67.0833 47.6203 O 0.0 **** 0.0
12806 O 77.1215 69.4686 49.0287 O 0.0 **** 0.0
12807 O 77.8046 72.0125 44.4966 O 0.0 **** 0.0
12808 C 76.5128 79.0142 41.8407 C 0.0 **** 0.0
12809 C 78.9847 77.9336 40.5854 C 0.0 **** 0.0
12810 H 76.6882 63.5794 48.9346 H 0.0 **** 0.0
12811 H 78.4687 63.9121 49.1666 H 0.0 **** 0.0
12812 H 80.027 60.3073 48.6793 H 0.0 **** 0.0
12813 H 78.4843 59.4331 48.6875 H 0.0 **** 0.0
12814 H 77.8671 65.2784 47.5221 H 0.0 **** 0.0
12815 H 78.4202 69.0143 41.6199 H 0.0 **** 0.0
12816 H 78.9439 67.4558 40.9152 H 0.0 **** 0.0
12817 H 76.0748 68.278 41.5439 H 0.0 **** 0.0
12818 H 75.3508 66.2414 40.6163 H 0.0 **** 0.0
12819 H 75.9382 64.6772 42.3581 H 0.0 **** 0.0
12820 H 75.7087 66.3285 42.9543 H 0.0 **** 0.0
12821 H 75.5751 71.5536 49.7311 H 0.0 **** 0.0
12822 H 77.088 72.5265 49.7008 H 0.0 **** 0.0
12823 H 75.0803 73.9098 49.5854 H 0.0 **** 0.0
12824 H 74.4111 72.9594 48.2091 H 0.0 **** 0.0
12825 H 73.8714 75.6864 48.5151 H 0.0 **** 0.0
12826 H 75.3004 76.2745 49.3806 H 0.0 **** 0.0
12827 H 75.0708 78.4357 48.5365 H 0.0 **** 0.0
12828 H 73.4431 78.0024 48.5791 H 0.0 **** 0.0
12829 H 74.0031 79.0029 46.3887 H 0.0 **** 0.0
12830 H 73.4841 77.2955 46.1581 H 0.0 **** 0.0
12831 H 76.4128 78.3528 46.2944 H 0.0 **** 0.0
12832 H 74.6238 77.3255 43.8576 H 0.0 **** 0.0
12833 H 75.4071 78.9433 44.1563 H 0.0 **** 0.0
12834 H 79.1039 74.7778 43.8663 H 0.0 **** 0.0
12835 H 79.8922 75.7757 41.7943 H 0.0 **** 0.0
12836 H 76.3007 62.6274 54.1009 H 0.0 **** 0.0
12837 H 76.2348 60.902 54.2469 H 0.0 **** 0.0
12838 H 74.9098 61.0899 51.8988 H 0.0 **** 0.0
12839 H 74.5018 62.7135 52.5427 H 0.0 **** 0.0
12840 H 74.0831 61.2475 53.4746 H 0.0 **** 0.0
12841 H 78.2628 58.9681 53.8316 H 0.0 **** 0.0
12842 H 78.322 60.5599 54.7035 H 0.0 **** 0.0
12843 H 79.7734 59.9466 53.9522 H 0.0 **** 0.0
12844 H 75.7373 63.955 50.9095 H 0.0 **** 0.0
12845 H 77.3371 64.7073 51.301 H 0.0 **** 0.0
12846 H 76.2971 64.1975 52.6299 H 0.0 **** 0.0
12847 H 80.855 59.4581 50.9275 H 0.0 **** 0.0
12848 H 79.5288 58.3417 50.4012 H 0.0 **** 0.0
12849 H 80.0172 58.5515 52.1519 H 0.0 **** 0.0
12850 H 79.0848 58.8068 45.0623 H 0.0 **** 0.0
12851 H 78.0704 58.5577 46.5652 H 0.0 **** 0.0
12852 H 79.8096 58.8298 46.6276 H 0.0 **** 0.0
12853 H 77.4044 61.3274 43.075 H 0.0 **** 0.0
12854 H 77.35 59.7811 43.8892 H 0.0 **** 0.0
12855 H 78.9492 60.4292 43.2666 H 0.0 **** 0.0
12856 H 78.9086 63.6875 42.1266 H 0.0 **** 0.0
12857 H 77.1441 65.7676 38.9515 H 0.0 **** 0.0
12858 H 76.7931 64.3856 39.8816 H 0.0 **** 0.0
12859 H 78.2381 65.281 40.3821 H 0.0 **** 0.0
12860 H 76.7527 69.4615 39.6207 H 0.0 **** 0.0
12861 H 75.7581 68.1306 39.1042 H 0.0 **** 0.0
12862 H 77.584 67.9687 38.8678 H 0.0 **** 0.0
12863 H 79.7473 70.4907 44.0144 H 0.0 **** 0.0
12864 H 76.0075 67.6379 48.2002 H 0.0 **** 0.0
12865 H 76.5906 79.8773 42.5655 H 0.0 **** 0.0
12866 H 75.4313 78.7311 41.5926 H 0.0 **** 0.0
12867 H 77.007 79.374 40.8528 H 0.0 **** 0.0
12868 H 78.2932 77.7918 39.7369 H 0.0 **** 0.0
12869 H 79.9793 77.554 40.2841 H 0.0 **** 0.0
12870 H 79.2076 79.0309 40.7879 H 0.0 **** 0.0
12871 C 29.4434 6.34679 56.9575 C 0.0 **** 0.0
12872 C 30.4483 5.67793 57.7778 C 0.0 **** 0.0
12873 C 30.2636 5.59163 59.1611 C 0.0 **** 0.0
12874 C 29.0478 6.0162 59.7359 C 0.0 **** 0.0
12875 C 27.9252 6.35012 58.8975 C 0.0 **** 0.0
12876 C 28.1413 6.63784 57.5432 C 0.0 **** 0.0
12877 C 28.9397 6.15808 61.2953 C 0.0 **** 0.0
12878 C 30.2655 6.42342 61.9845 C 0.0 **** 0.0
12879 C 31.4604 5.99727 61.4136 C 0.0 **** 0.0
12880 C 31.3917 5.19639 60.0814 C 0.0 **** 0.0
12881 C 32.6863 6.25023 61.9997 C 0.0 **** 0.0
12882 C 32.731 6.99707 63.213 C 0.0 **** 0.0
12883 C 31.5273 7.3629 63.9064 C 0.0 **** 0.0
12884 C 30.2829 7.04642 63.2729 C 0.0 **** 0.0
12885 C 29.1047 7.40044 63.9874 C 0.0 **** 0.0
12886 C 29.1093 8.15068 65.2051 C 0.0 **** 0.0
12887 C 30.3357 8.60266 65.6721 C 0.0 **** 0.0
12888 C 31.5393 8.00526 65.1851 C 0.0 **** 0.0
12889 C 30.3849 9.53935 66.8251 C 0.0 **** 0.0
12890 C 29.5455 9.02335 67.9647 C 0.0 **** 0.0
12891 C 28.149 8.55641 67.4052 C 0.0 **** 0.0
12892 C 27.9512 8.24313 66.0278 C 0.0 **** 0.0
12893 C 29.4663 10.2083 68.9947 C 0.0 **** 0.0
12894 C 28.7529 11.4586 68.4481 C 0.0 **** 0.0
12895 C 29.6227 12.053 67.3613 C 0.0 **** 0.0
12896 C 29.9322 10.9761 66.2941 C 0.0 **** 0.0
12897 C 26.6745 8.09091 65.4827 C 0.0 **** 0.0
12898 C 25.5429 7.97104 66.3383 C 0.0 **** 0.0
12899 C 25.7532 7.93619 67.7384 C 0.0 **** 0.0
12900 C 27.0211 8.40131 68.2656 C 0.0 **** 0.0
12901 C 24.6124 7.54268 68.6128 C 0.0 **** 0.0
12902 C 23.2775 7.16267 68.0312 C 0.0 **** 0.0
12903 C 23.0319 7.46544 66.6955 C 0.0 **** 0.0
12904 C 24.1521 7.82425 65.8372 C 0.0 **** 0.0
12905 C 21.7079 7.08451 66.0003 C 0.0 **** 0.0
12906 C 20.5656 7.06996 67.0123 C 0.0 **** 0.0
12907 C 20.9899 6.30788 68.2604 C 0.0 **** 0.0
12908 C 22.2837 6.53867 68.8087 C 0.0 **** 0.0
12909 N 22.5309 6.09021 70.0853 N 0.0 **** 0.0
12910 C 21.5856 5.53864 70.8711 C 0.0 **** 0.0
12911 C 20.3349 5.20711 70.3417 C 0.0 **** 0.0
12912 C 20.0779 5.48165 68.9897 C 0.0 **** 0.0
12913 C 18.77 5.05671 68.3584 C 0.0 **** 0.0
12914 C 17.8302 4.1521 69.1811 C 0.0 **** 0.0
12915 C 17.9248 4.44106 70.7097 C 0.0 **** 0.0
12916 C 19.3769 4.46153 71.2417 C 0.0 **** 0.0
12917 C 19.4022 5.18259 72.6351 C 0.0 **** 0.0
12918 C 20.8185 5.25229 73.1603 C 0.0 **** 0.0
12919 C 21.8256 5.40422 72.2449 C 0.0 **** 0.0
12920 C 23.1654 5.21444 72.694 C 0.0 **** 0.0
12921 C 23.4849 5.06965 74.0699 C 0.0 **** 0.0
12922 C 22.4128 4.96643 74.9996 C 0.0 **** 0.0
12923 C 21.0746 5.00783 74.5323 C 0.0 **** 0.0
12924 C 27.0871 7.31776 56.6886 C 0.0 **** 0.0
12925 C 27.0884 8.84715 56.8633 C 0.0 **** 0.0
12926 C 29.7735 6.84253 55.5271 C 0.0 **** 0.0
12927 C 26.5269 6.44338 59.4714 C 0.0 **** 0.0
12928 C 31.6728 5.0687 57.0958 C 0.0 **** 0.0
12929 C 33.951 5.62699 61.4389 C 0.0 **** 0.0
12930 C 34.0283 7.56889 63.6521 C 0.0 **** 0.0
12931 O 32.6024 7.95229 66.0833 O 0.0 **** 0.0
12932 C 30.9938 12.6479 67.947 C 0.0 **** 0.0
12933 C 28.3663 12.4669 69.5545 C 0.0 **** 0.0
12934 O 27.2119 8.43738 69.6188 O 0.0 **** 0.0
12935 O 26.4731 8.25138 64.1096 O 0.0 **** 0.0
12936 O 23.937 8.07735 64.666 O 0.0 **** 0.0
12937 O 24.762 7.53104 69.8074 O 0.0 **** 0.0
12938 C 19.9345 4.72704 75.4924 C 0.0 **** 0.0
12939 C 22.7546 4.73817 76.4298 C 0.0 **** 0.0
12940 H 28.3568 7.10196 61.4399 H 0.0 **** 0.0
12941 H 28.4063 5.29519 61.7877 H 0.0 **** 0.0
12942 H 31.2922 4.11839 60.2758 H 0.0 **** 0.0
12943 H 32.3443 5.36887 59.6011 H 0.0 **** 0.0
12944 H 28.2052 6.90801 63.7183 H 0.0 **** 0.0
12945 H 29.0379 9.85686 69.9744 H 0.0 **** 0.0
12946 H 30.5124 10.3806 69.3428 H 0.0 **** 0.0
12947 H 27.763 11.1819 68.0631 H 0.0 **** 0.0
12948 H 29.0326 12.8515 66.8877 H 0.0 **** 0.0
12949 H 30.6263 11.4484 65.5386 H 0.0 **** 0.0
12950 H 28.9536 10.8573 65.7297 H 0.0 **** 0.0
12951 H 21.467 7.81004 65.2046 H 0.0 **** 0.0
12952 H 21.7674 6.08282 65.5532 H 0.0 **** 0.0
12953 H 19.614 6.62793 66.5768 H 0.0 **** 0.0
12954 H 20.3007 8.15254 67.2583 H 0.0 **** 0.0
12955 H 18.2096 6.02732 68.1462 H 0.0 **** 0.0
12956 H 19.022 4.50582 67.3816 H 0.0 **** 0.0
12957 H 18.1056 3.14296 68.9656 H 0.0 **** 0.0
12958 H 16.7719 4.42637 68.9051 H 0.0 **** 0.0
12959 H 17.4076 3.68646 71.2826 H 0.0 **** 0.0
12960 H 17.3969 5.34163 71.0314 H 0.0 **** 0.0
12961 H 19.7342 3.35906 71.3397 H 0.0 **** 0.0
12962 H 19.0269 6.25088 72.5201 H 0.0 **** 0.0
12963 H 18.7368 4.56927 73.2745 H 0.0 **** 0.0
12964 H 23.9665 5.33397 72.0079 H 0.0 **** 0.0
12965 H 24.5077 4.92857 74.3793 H 0.0 **** 0.0
12966 H 26.1004 6.8873 56.986 H 0.0 **** 0.0
12967 H 27.214 7.06473 55.6648 H 0.0 **** 0.0
12968 H 28.1306 9.25961 56.8532 H 0.0 **** 0.0
12969 H 26.628 9.13643 57.7877 H 0.0 **** 0.0
12970 H 26.5043 9.32492 56.047 H 0.0 **** 0.0
12971 H 30.868 7.13075 55.491 H 0.0 **** 0.0
12972 H 29.2371 7.80526 55.3134 H 0.0 **** 0.0
12973 H 29.5999 6.12098 54.7037 H 0.0 **** 0.0
12974 H 26.4686 6.16923 60.5267 H 0.0 **** 0.0
12975 H 25.7899 5.90479 58.8507 H 0.0 **** 0.0
12976 H 26.258 7.48514 59.4721 H 0.0 **** 0.0
12977 H 32.5124 5.75711 57.4226 H 0.0 **** 0.0
12978 H 31.6293 5.00673 55.9966 H 0.0 **** 0.0
12979 H 31.8076 4.03144 57.4745 H 0.0 **** 0.0
12980 H 34.7444 5.66036 62.1539 H 0.0 **** 0.0
12981 H 34.2905 6.15986 60.553 H 0.0 **** 0.0
12982 H 33.7911 4.57033 61.2418 H 0.0 **** 0.0
12983 H 33.8676 8.55064 64.0648 H 0.0 **** 0.0
12984 H 34.669 7.78551 62.7882 H 0.0 **** 0.0
12985 H 34.6119 6.9186 64.3746 H 0.0 **** 0.0
12986 H 33.1882 7.15704 66.0508 H 0.0 **** 0.0
12987 H 30.8891 13.5526 68.6211 H 0.0 **** 0.0
12988 H 31.6033 13.0601 67.1208 H 0.0 **** 0.0
12989 H 31.6576 11.9866 68.4753 H 0.0 **** 0.0
12990 H 27.5848 12.0319 70.2574 H 0.0 **** 0.0
12991 H 27.943 13.3465 69.1136 H 0.0 **** 0.0
12992 H 29.2682 12.7116 70.1501 H 0.0 **** 0.0
12993 H 26.6138 9.13065 70.07 H 0.0 **** 0.0
12994 H 27.1018 8.90473 63.5961 H 0.0 **** 0.0
12995 H 18.9658 5.25567 75.2422 H 0.0 **** 0.0
12996 H 20.1359 4.94463 76.5356 H 0.0 **** 0.0
12997 H 19.6773 3.62647 75.4613 H 0.0 **** 0.0
12998 H 22.2807 5.56064 76.9904 H 0.0 **** 0.0
12999 H 23.8691 4.75662 76.6149 H 0.0 **** 0.0
13000 H 22.3688 3.75248 76.8133 H 0.0 **** 0.0
13001 C -3.31382 28.7011 36.0038 C 0.0 **** 0.0
13002 C -3.23512 29.8478 35.1261 C 0.0 **** 0.0
13003 C -2.41399 29.7888 33.993 C 0.0 **** 0.0
13004 C -1.83362 28.6402 33.5898 C 0.0 **** 0.0
13005 C -2.06898 27.4339 34.3196 C 0.0 **** 0.0
13006 C -2.65047 27.5107 35.623 C 0.0 **** 0.0
13007 C -0.911928 28.6078 32.3974 C 0.0 **** 0.0
13008 C -0.306927 29.8922 31.8854 C 0.0 **** 0.0
13009 C -0.787482 31.1026 32.3545 C 0.0 **** 0.0
13010 C -2.04907 31.1141 33.2388 C 0.0 **** 0.0
13011 C -0.241153 32.3256 31.8309 C 0.0 **** 0.0
13012 C 0.862763 32.262 30.9507 C 0.0 **** 0.0
13013 C 1.315 31.016 30.4619 C 0.0 **** 0.0
13014 C 0.72051 29.8242 30.9052 C 0.0 **** 0.0
13015 C 1.11712 28.6047 30.3226 C 0.0 **** 0.0
13016 C 2.16632 28.5304 29.4059 C 0.0 **** 0.0
13017 C 2.86802 29.695 29.1426 C 0.0 **** 0.0
13018 C 2.22792 30.9176 29.4197 C 0.0 **** 0.0
13019 C 4.16964 29.5028 28.3541 C 0.0 **** 0.0
13020 C 4.79682 28.1096 28.6774 C 0.0 **** 0.0
13021 C 3.78843 27.0231 28.4365 C 0.0 **** 0.0
13022 C 2.48706 27.2928 28.8297 C 0.0 **** 0.0
13023 C 5.42422 28.0571 30.079 C 0.0 **** 0.0
13024 C 6.44352 29.2014 30.2513 C 0.0 **** 0.0
13025 C 5.82257 30.5364 29.9737 C 0.0 **** 0.0
13026 C 5.20057 30.6014 28.559 C 0.0 **** 0.0
13027 C 1.46129 26.2951 28.5547 C 0.0 **** 0.0
13028 C 1.78491 25.0585 27.9695 C 0.0 **** 0.0
13029 C 3.09493 24.8772 27.4819 C 0.0 **** 0.0
13030 C 4.09851 25.8946 27.686 C 0.0 **** 0.0
13031 C 3.41388 23.644 26.698 C 0.0 **** 0.0
13032 C 2.31221 22.8766 26.0946 C 0.0 **** 0.0
13033 C 1.04556 22.9702 26.6582 C 0.0 **** 0.0
13034 C 0.798527 23.9877 27.6943 C 0.0 **** 0.0
13035 C -0.0852903 22.1272 26.0294 C 0.0 **** 0.0
13036 C 0.438056 20.7948 25.4761 C 0.0 **** 0.0
13037 C 1.69706 20.9724 24.6516 C 0.0 **** 0.0
13038 C 2.56773 21.9572 25.0523 C 0.0 **** 0.0
13039 N 3.59155 22.3271 24.2312 N 0.0 **** 0.0
13040 C 3.80177 21.7761 23.0058 C 0.0 **** 0.0
13041 C 2.93865 20.7881 22.5309 C 0.0 **** 0.0
13042 C 1.8431 20.3795 23.3832 C 0.0 **** 0.0
13043 C 0.946074 19.2601 22.9322 C 0.0 **** 0.0
13044 C 1.44363 18.347 21.8064 C 0.0 **** 0.0
13045 C 2.85342 18.6414 21.3293 C 0.0 **** 0.0
13046 C 3.08005 20.1274 21.1678 C 0.0 **** 0.0
13047 C 4.40479 20.4084 20.4294 C 0.0 **** 0.0
13048 C 5.1762 21.62 20.9427 C 0.0 **** 0.0
13049 C 4.87393 22.2317 22.2221 C 0.0 **** 0.0
13050 C 5.70074 23.2511 22.7406 C 0.0 **** 0.0
13051 C 6.78476 23.717 22.0203 C 0.0 **** 0.0
13052 C 7.06976 23.2103 20.7245 C 0.0 **** 0.0
13053 C 6.36558 22.0962 20.2207 C 0.0 **** 0.0
13054 C -2.64184 26.3146 36.5489 C 0.0 **** 0.0
13055 C -1.42624 26.3138 37.4495 C 0.0 **** 0.0
13056 C -3.94825 28.8276 37.3756 C 0.0 **** 0.0
13057 C -1.64907 26.0769 33.7109 C 0.0 **** 0.0
13058 C -3.9871 31.1531 35.4419 C 0.0 **** 0.0
13059 C -0.808686 33.6748 32.1452 C 0.0 **** 0.0
13060 C 1.75014 33.4879 30.7469 C 0.0 **** 0.0
13061 O 2.19332 31.9199 28.4454 O 0.0 **** 0.0
13062 C 6.6895 31.7974 30.2359 C 0.0 **** 0.0
13063 C 7.8042 28.968 29.5104 C 0.0 **** 0.0
13064 O 5.3356 25.7598 27.0992 O 0.0 **** 0.0
13065 O 0.171527 26.748 28.4835 O 0.0 **** 0.0
13066 O -0.208074 23.9012 28.4081 O 0.0 **** 0.0
13067 O 4.57482 23.2524 26.5978 O 0.0 **** 0.0
13068 C 6.68338 21.6372 18.8161 C 0.0 **** 0.0
13069 C 8.26015 23.7364 20.0265 C 0.0 **** 0.0
13070 H -0.0286018 28.0559 32.795 H 0.0 **** 0.0
13071 H -1.40996 28.0615 31.5654 H 0.0 **** 0.0
13072 H -2.87125 31.4087 32.6067 H 0.0 **** 0.0
13073 H -1.80934 31.9341 34.0265 H 0.0 **** 0.0
13074 H 0.64726 27.6814 30.6452 H 0.0 **** 0.0
13075 H 4.63515 28.1625 30.864 H 0.0 **** 0.0
13076 H 5.90506 27.058 30.2831 H 0.0 **** 0.0
13077 H 6.80124 29.2067 31.3369 H 0.0 **** 0.0
13078 H 4.93662 30.6034 30.6925 H 0.0 **** 0.0
13079 H 5.99245 30.4838 27.7892 H 0.0 **** 0.0
13080 H 4.69742 31.5638 28.3737 H 0.0 **** 0.0
13081 H -0.891185 21.8531 26.8365 H 0.0 **** 0.0
13082 H -0.585212 22.7549 25.2447 H 0.0 **** 0.0
13083 H -0.397739 20.3128 24.9762 H 0.0 **** 0.0
13084 H 0.706533 20.1354 26.2738 H 0.0 **** 0.0
13085 H 0.672546 18.6253 23.828 H 0.0 **** 0.0
13086 H -0.0413266 19.7049 22.6442 H 0.0 **** 0.0
13087 H 0.785307 18.471 20.8846 H 0.0 **** 0.0
13088 H 1.36317 17.2376 22.1845 H 0.0 **** 0.0
13089 H 3.07115 18.075 20.3741 H 0.0 **** 0.0
13090 H 3.59222 18.3589 22.0308 H 0.0 **** 0.0
13091 H 2.26802 20.5761 20.5867 H 0.0 **** 0.0
13092 H 5.08948 19.5463 20.3812 H 0.0 **** 0.0
13093 H 4.0502 20.5927 19.4016 H 0.0 **** 0.0
13094 H 5.46427 23.6019 23.6989 H 0.0 **** 0.0
13095 H 7.38055 24.5446 22.421 H 0.0 **** 0.0
13096 H -2.69578 25.3734 35.9885 H 0.0 **** 0.0
13097 H -3.61429 26.1744 37.1191 H 0.0 **** 0.0
13098 H -1.38409 27.1459 38.1121 H 0.0 **** 0.0
13099 H -0.508752 26.2639 36.913 H 0.0 **** 0.0
13100 H -1.53344 25.3952 38.0378 H 0.0 **** 0.0
13101 H -4.83534 28.145 37.3915 H 0.0 **** 0.0
13102 H -4.26232 29.8242 37.7168 H 0.0 **** 0.0
13103 H -3.26563 28.4503 38.1917 H 0.0 **** 0.0
13104 H -1.35069 26.181 32.6722 H 0.0 **** 0.0
13105 H -2.502 25.3688 33.6617 H 0.0 **** 0.0
13106 H -0.76744 25.6344 34.3522 H 0.0 **** 0.0
13107 H -4.06696 31.8667 34.6274 H 0.0 **** 0.0
13108 H -3.38998 31.6089 36.233 H 0.0 **** 0.0
13109 H -5.04488 30.9438 35.7894 H 0.0 **** 0.0
13110 H -0.74106 34.3718 31.3209 H 0.0 **** 0.0
13111 H -0.25456 34.0947 32.9938 H 0.0 **** 0.0
13112 H -1.9114 33.6173 32.2677 H 0.0 **** 0.0
13113 H 2.80559 33.212 30.8902 H 0.0 **** 0.0
13114 H 1.55444 34.279 31.4573 H 0.0 **** 0.0
13115 H 1.67025 33.9266 29.7453 H 0.0 **** 0.0
13116 H 2.71872 31.6938 27.5945 H 0.0 **** 0.0
13117 H 7.257 31.7102 31.1921 H 0.0 **** 0.0
13118 H 5.96737 32.5738 30.2497 H 0.0 **** 0.0
13119 H 7.43629 31.9041 29.4247 H 0.0 **** 0.0
13120 H 8.29347 28.0728 29.9362 H 0.0 **** 0.0
13121 H 8.54101 29.7691 29.6264 H 0.0 **** 0.0
13122 H 7.66682 28.7024 28.4564 H 0.0 **** 0.0
13123 H 6.05247 26.4152 27.4745 H 0.0 **** 0.0
13124 H -0.378445 26.3188 27.738 H 0.0 **** 0.0
13125 H 5.94605 20.8826 18.4537 H 0.0 **** 0.0
13126 H 7.70967 21.1489 18.7526 H 0.0 **** 0.0
13127 H 6.61297 22.5128 18.1493 H 0.0 **** 0.0
13128 H 9.10303 22.9919 20.0827 H 0.0 **** 0.0
13129 H 8.52096 24.7476 20.3989 H 0.0 **** 0.0
13130 H 8.10147 23.8281 18.9514 H 0.0 **** 0.0
13131 C 96.7156 7.40808 93.667 C 0.0 **** 0.0
13132 C 96.5062 8.80799 93.7138 C 0.0 **** 0.0
13133 C 97.3978 9.62216 94.4831 C 0.0 **** 0.0
13134 C 98.5175 9.04061 95.1024 C 0.0 **** 0.0
13135 C 98.7959 7.63397 94.87 C 0.0 **** 0.0
13136 C 97.9029 6.82515 94.1489 C 0.0 **** 0.0
13137 C 99.5091 9.9174 95.8555 C 0.0 **** 0.0
13138 C 99.0968 11.3699 96.186 C 0.0 **** 0.0
13139 C 97.955 11.9331 95.5463 C 0.0 **** 0.0
13140 C 97.089 11.0885 94.6424 C 0.0 **** 0.0
13141 C 97.5076 13.235 95.9293 C 0.0 **** 0.0
13142 C 98.2315 13.9291 96.907 C 0.0 **** 0.0
13143 C 99.4792 13.4914 97.3425 C 0.0 **** 0.0
13144 C 99.9062 12.1649 97.018 C 0.0 **** 0.0
13145 C 101.125 11.6902 97.5211 C 0.0 **** 0.0
13146 C 101.884 12.4831 98.4256 C 0.0 **** 0.0
13147 C 101.309 13.6796 98.9462 C 0.0 **** 0.0
13148 C 100.288 14.2702 98.1698 C 0.0 **** 0.0
13149 C 101.744 14.3171 100.231 C 0.0 **** 0.0
13150 C 102.822 13.5005 101.002 C 0.0 **** 0.0
13151 C 103.685 12.6179 100.102 C 0.0 **** 0.0
13152 C 103.179 12.1475 98.8489 C 0.0 **** 0.0
13153 C 102.2 12.6398 102.123 C 0.0 **** 0.0
13154 C 100.759 12.2572 101.776 C 0.0 **** 0.0
13155 C 99.8454 13.4226 101.803 C 0.0 **** 0.0
13156 C 100.54 14.6555 101.116 C 0.0 **** 0.0
13157 C 104.051 11.3775 98.0279 C 0.0 **** 0.0
13158 C 105.212 10.8225 98.5738 C 0.0 **** 0.0
13159 C 105.798 11.3731 99.7465 C 0.0 **** 0.0
13160 C 105.045 12.3653 100.466 C 0.0 **** 0.0
13161 C 107.172 10.8783 100.129 C 0.0 **** 0.0
13162 C 107.988 10.091 99.1294 C 0.0 **** 0.0
13163 C 107.339 9.41808 98.1035 C 0.0 **** 0.0
13164 C 105.96 9.72969 97.8193 C 0.0 **** 0.0
13165 C 108.056 8.5877 97.0654 C 0.0 **** 0.0
13166 C 109.43 8.18458 97.6022 C 0.0 **** 0.0
13167 C 110.165 9.34911 98.2411 C 0.0 **** 0.0
13168 C 109.411 10.2129 99.0643 C 0.0 **** 0.0
13169 N 110.017 11.2128 99.7561 N 0.0 **** 0.0
13170 C 111.356 11.4234 99.6695 C 0.0 **** 0.0
13171 C 112.135 10.5161 98.9125 C 0.0 **** 0.0
13172 C 111.556 9.47899 98.1195 C 0.0 **** 0.0
13173 C 112.425 8.48547 97.3539 C 0.0 **** 0.0
13174 C 113.924 8.88771 97.1942 C 0.0 **** 0.0
13175 C 114.44 9.53705 98.4782 C 0.0 **** 0.0
13176 C 113.647 10.7884 98.7956 C 0.0 **** 0.0
13177 C 114.192 11.4937 100.032 C 0.0 **** 0.0
13178 C 113.321 12.6595 100.461 C 0.0 **** 0.0
13179 C 111.951 12.5667 100.266 C 0.0 **** 0.0
13180 C 111.146 13.6648 100.648 C 0.0 **** 0.0
13181 C 111.676 14.8298 101.154 C 0.0 **** 0.0
13182 C 113.062 14.9182 101.366 C 0.0 **** 0.0
13183 C 113.919 13.8307 101.002 C 0.0 **** 0.0
13184 C 98.2339 5.38984 93.7232 C 0.0 **** 0.0
13185 C 97.7513 4.25888 94.7082 C 0.0 **** 0.0
13186 C 95.596 6.50929 93.1535 C 0.0 **** 0.0
13187 C 100.106 7.04286 95.2791 C 0.0 **** 0.0
13188 C 95.2732 9.40981 93.0998 C 0.0 **** 0.0
13189 C 96.2931 13.8883 95.2357 C 0.0 **** 0.0
13190 C 97.4846 15.0787 97.5835 C 0.0 **** 0.0
13191 O 100.071 15.6654 98.1624 O 0.0 **** 0.0
13192 C 99.3165 13.8326 103.181 C 0.0 **** 0.0
13193 C 100.307 11.1496 102.724 C 0.0 **** 0.0
13194 O 105.589 13.0845 101.519 O 0.0 **** 0.0
13195 O 103.793 11.213 96.665 O 0.0 **** 0.0
13196 O 105.364 9.10853 96.9494 O 0.0 **** 0.0
13197 O 107.654 11.1232 101.215 O 0.0 **** 0.0
13198 C 115.368 13.7574 101.455 C 0.0 **** 0.0
13199 C 113.626 16.203 101.888 C 0.0 **** 0.0
13200 H 99.7721 9.41909 96.8321 H 0.0 **** 0.0
13201 H 100.42 9.99833 95.2321 H 0.0 **** 0.0
13202 H 97.1299 11.5417 93.6567 H 0.0 **** 0.0
13203 H 96.0443 11.0839 95.0676 H 0.0 **** 0.0
13204 H 101.543 10.7155 97.2596 H 0.0 **** 0.0
13205 H 102.84 11.7744 102.316 H 0.0 **** 0.0
13206 H 102.223 13.2108 103.064 H 0.0 **** 0.0
13207 H 100.74 11.8312 100.762 H 0.0 **** 0.0
13208 H 98.9316 13.1779 101.164 H 0.0 **** 0.0
13209 H 100.926 15.3697 101.922 H 0.0 **** 0.0
13210 H 99.7462 15.2264 100.562 H 0.0 **** 0.0
13211 H 107.501 7.67868 96.8918 H 0.0 **** 0.0
13212 H 108.158 9.16384 96.1072 H 0.0 **** 0.0
13213 H 109.988 7.74242 96.7661 H 0.0 **** 0.0
13214 H 109.267 7.40254 98.4036 H 0.0 **** 0.0
13215 H 112.272 7.45895 97.7944 H 0.0 **** 0.0
13216 H 112.052 8.352 96.3209 H 0.0 **** 0.0
13217 H 114.023 9.6178 96.4163 H 0.0 **** 0.0
13218 H 114.52 8.05713 96.8663 H 0.0 **** 0.0
13219 H 115.472 9.82713 98.2786 H 0.0 **** 0.0
13220 H 114.408 8.75168 99.2229 H 0.0 **** 0.0
13221 H 113.766 11.5439 97.9966 H 0.0 **** 0.0
13222 H 114.166 10.759 100.854 H 0.0 **** 0.0
13223 H 115.244 11.7509 99.8068 H 0.0 **** 0.0
13224 H 110.051 13.6569 100.562 H 0.0 **** 0.0
13225 H 111.055 15.594 101.428 H 0.0 **** 0.0
13226 H 99.2981 5.34383 93.4578 H 0.0 **** 0.0
13227 H 97.7769 5.19815 92.6911 H 0.0 **** 0.0
13228 H 96.8777 4.63752 95.2926 H 0.0 **** 0.0
13229 H 98.6045 4.07826 95.4018 H 0.0 **** 0.0
13230 H 97.5046 3.3519 94.0992 H 0.0 **** 0.0
13231 H 95.655 5.46131 93.4766 H 0.0 **** 0.0
13232 H 95.6366 6.43584 92.0462 H 0.0 **** 0.0
13233 H 94.5868 6.8779 93.523 H 0.0 **** 0.0
13234 H 99.8993 6.08846 95.8665 H 0.0 **** 0.0
13235 H 100.747 7.70827 95.8546 H 0.0 **** 0.0
13236 H 100.647 6.70041 94.3992 H 0.0 **** 0.0
13237 H 95.266 10.4969 92.9712 H 0.0 **** 0.0
13238 H 94.4354 9.12953 93.776 H 0.0 **** 0.0
13239 H 95.1284 9.04948 92.037 H 0.0 **** 0.0
13240 H 96.5159 14.9445 95.0647 H 0.0 **** 0.0
13241 H 95.4123 13.7874 95.9184 H 0.0 **** 0.0
13242 H 96.054 13.4932 94.2179 H 0.0 **** 0.0
13243 H 97.9095 15.3057 98.5947 H 0.0 **** 0.0
13244 H 96.3705 14.8042 97.7 H 0.0 **** 0.0
13245 H 97.61 16.0095 96.954 H 0.0 **** 0.0
13246 H 100.613 16.1927 98.7652 H 0.0 **** 0.0
13247 H 98.6083 13.0643 103.553 H 0.0 **** 0.0
13248 H 98.7359 14.7952 103.106 H 0.0 **** 0.0
13249 H 100.204 13.9016 103.883 H 0.0 **** 0.0
13250 H 100.932 10.2211 102.573 H 0.0 **** 0.0
13251 H 99.2411 10.9032 102.515 H 0.0 **** 0.0
13252 H 100.259 11.4382 103.818 H 0.0 **** 0.0
13253 H 106.589 13.2264 101.499 H 0.0 **** 0.0
13254 H 104.652 11.1824 96.1024 H 0.0 **** 0.0
13255 H 115.533 12.7947 101.944 H 0.0 **** 0.0
13256 H 115.584 14.5421 102.138 H 0.0 **** 0.0
13257 H 116.06 13.8427 100.612 H 0.0 **** 0.0
13258 H 114.064 16.0901 102.883 H 0.0 **** 0.0
13259 H 112.855 16.9551 102.092 H 0.0 **** 0.0
13260 H 114.427 16.5895 101.217 H 0.0 **** 0.0
13261 C 66.7838 102.469 66.5689 C 0.0 **** 0.0
13262 C 65.8898 102.171 67.6362 C 0.0 **** 0.0
13263 C 66.0754 100.975 68.3316 C 0.0 **** 0.0
13264 C 67.2087 100.184 68.0602 C 0.0 **** 0.0
13265 C 68.211 100.615 67.1997 C 0.0 **** 0.0
13266 C 68.0038 101.81 66.4439 C 0.0 **** 0.0
13267 C 67.2283 98.7627 68.5906 C 0.0 **** 0.0
13268 C 66.0123 98.221 69.2413 C 0.0 **** 0.0
13269 C 64.9789 99.0893 69.6207 C 0.0 **** 0.0
13270 C 65.0974 100.537 69.3924 C 0.0 **** 0.0
13271 C 63.8363 98.6442 70.3391 C 0.0 **** 0.0
13272 C 63.6778 97.2538 70.5139 C 0.0 **** 0.0
13273 C 64.7859 96.3825 70.3334 C 0.0 **** 0.0
13274 C 65.9864 96.8597 69.7053 C 0.0 **** 0.0
13275 C 67.1373 96.0061 69.6489 C 0.0 **** 0.0
13276 C 67.11 94.7206 70.3166 C 0.0 **** 0.0
13277 C 65.8472 94.1899 70.6592 C 0.0 **** 0.0
13278 C 64.7838 95.08 70.8895 C 0.0 **** 0.0
13279 C 65.649 92.6809 70.8965 C 0.0 **** 0.0
13280 C 66.9411 91.8837 70.6131 C 0.0 **** 0.0
13281 C 68.1616 92.6538 71.027 C 0.0 **** 0.0
13282 C 68.2748 94.0256 70.7885 C 0.0 **** 0.0
13283 C 67.0605 91.3966 69.1799 C 0.0 **** 0.0
13284 C 66.2848 92.191 68.1502 C 0.0 **** 0.0
13285 C 64.8435 92.1272 68.3972 C 0.0 **** 0.0
13286 C 64.5245 92.0587 69.9638 C 0.0 **** 0.0
13287 C 69.4336 94.7118 71.2715 C 0.0 **** 0.0
13288 C 70.3865 93.985 72.0473 C 0.0 **** 0.0
13289 C 70.274 92.5587 72.1594 C 0.0 **** 0.0
13290 C 69.1841 91.9068 71.6176 C 0.0 **** 0.0
13291 C 71.2866 91.8482 73.0056 C 0.0 **** 0.0
13292 C 71.7525 92.5846 74.2191 C 0.0 **** 0.0
13293 C 71.723 94.0 74.2576 C 0.0 **** 0.0
13294 C 71.3599 94.6827 72.9945 C 0.0 **** 0.0
13295 C 72.2134 94.7555 75.4667 C 0.0 **** 0.0
13296 C 73.3456 93.9718 76.1213 C 0.0 **** 0.0
13297 C 72.8877 92.5668 76.3795 C 0.0 **** 0.0
13298 C 72.2212 91.8851 75.3657 C 0.0 **** 0.0
13299 N 71.978 90.5595 75.4547 N 0.0 **** 0.0
13300 C 72.3067 89.8208 76.532 C 0.0 **** 0.0
13301 C 72.9237 90.4665 77.6389 C 0.0 **** 0.0
13302 C 73.1983 91.8474 77.5749 C 0.0 **** 0.0
13303 C 73.8127 92.5996 78.7228 C 0.0 **** 0.0
13304 C 74.087 91.7366 79.9766 C 0.0 **** 0.0
13305 C 74.4545 90.2751 79.6586 C 0.0 **** 0.0
13306 C 73.349 89.6143 78.8157 C 0.0 **** 0.0
13307 C 73.8073 88.2594 78.3011 C 0.0 **** 0.0
13308 C 72.7033 87.6312 77.4529 C 0.0 **** 0.0
13309 C 72.0294 88.4326 76.547 C 0.0 **** 0.0
13310 C 71.1031 87.8478 75.6593 C 0.0 **** 0.0
13311 C 70.8624 86.4645 75.7101 C 0.0 **** 0.0
13312 C 71.5912 85.5995 76.5618 C 0.0 **** 0.0
13313 C 72.5302 86.1921 77.4534 C 0.0 **** 0.0
13314 C 69.1777 102.512 65.7436 C 0.0 **** 0.0
13315 C 69.2976 102.201 64.2175 C 0.0 **** 0.0
13316 C 66.3913 103.517 65.5885 C 0.0 **** 0.0
13317 C 69.528 99.8528 67.0759 C 0.0 **** 0.0
13318 C 64.7881 103.125 68.033 C 0.0 **** 0.0
13319 C 62.6772 99.5583 70.7543 C 0.0 **** 0.0
13320 C 62.2652 96.679 70.7681 C 0.0 **** 0.0
13321 O 63.8662 94.8403 71.9337 O 0.0 **** 0.0
13322 C 64.1269 91.0378 67.5771 C 0.0 **** 0.0
13323 C 66.7674 91.7905 66.7411 C 0.0 **** 0.0
13324 O 68.9 90.5477 71.7969 O 0.0 **** 0.0
13325 O 69.4759 96.1231 71.2403 O 0.0 **** 0.0
13326 O 71.8656 95.7538 72.7083 O 0.0 **** 0.0
13327 O 71.7328 90.7276 72.772 O 0.0 **** 0.0
13328 C 73.3343 85.3714 78.4197 C 0.0 **** 0.0
13329 C 71.3244 84.0676 76.5167 C 0.0 **** 0.0
13330 H 67.5025 98.1228 67.7284 H 0.0 **** 0.0
13331 H 68.0934 98.5814 69.2837 H 0.0 **** 0.0
13332 H 65.3332 101.077 70.3321 H 0.0 **** 0.0
13333 H 64.0979 100.811 68.9783 H 0.0 **** 0.0
13334 H 68.0937 96.39 69.2663 H 0.0 **** 0.0
13335 H 68.107 91.322 68.9315 H 0.0 **** 0.0
13336 H 66.6777 90.3613 69.1626 H 0.0 **** 0.0
13337 H 66.6605 93.2359 68.2351 H 0.0 **** 0.0
13338 H 64.4957 93.1064 68.0347 H 0.0 **** 0.0
13339 H 64.3679 91.0503 70.2831 H 0.0 **** 0.0
13340 H 63.5888 92.5862 70.1503 H 0.0 **** 0.0
13341 H 72.5478 95.7821 75.1483 H 0.0 **** 0.0
13342 H 71.3381 94.7914 76.1519 H 0.0 **** 0.0
13343 H 73.5918 94.533 77.0442 H 0.0 **** 0.0
13344 H 74.2321 94.0483 75.4809 H 0.0 **** 0.0
13345 H 74.7829 93.1053 78.3609 H 0.0 **** 0.0
13346 H 73.0794 93.4035 78.9774 H 0.0 **** 0.0
13347 H 73.1656 91.79 80.6579 H 0.0 **** 0.0
13348 H 74.9379 92.2239 80.5269 H 0.0 **** 0.0
13349 H 74.6545 89.7252 80.5829 H 0.0 **** 0.0
13350 H 75.4327 90.2925 79.0708 H 0.0 **** 0.0
13351 H 72.44 89.4634 79.4436 H 0.0 **** 0.0
13352 H 74.7345 88.3752 77.7038 H 0.0 **** 0.0
13353 H 74.139 87.5918 79.1757 H 0.0 **** 0.0
13354 H 70.6889 88.3622 74.8297 H 0.0 **** 0.0
13355 H 70.2001 86.0426 74.9721 H 0.0 **** 0.0
13356 H 70.1391 102.273 66.2063 H 0.0 **** 0.0
13357 H 69.0384 103.631 65.8547 H 0.0 **** 0.0
13358 H 68.9147 101.23 64.0006 H 0.0 **** 0.0
13359 H 70.3512 102.085 63.9758 H 0.0 **** 0.0
13360 H 68.7783 102.978 63.6282 H 0.0 **** 0.0
13361 H 65.3307 103.409 65.2255 H 0.0 **** 0.0
13362 H 66.9473 103.534 64.6504 H 0.0 **** 0.0
13363 H 66.3833 104.49 66.0373 H 0.0 **** 0.0
13364 H 70.3196 100.482 67.4961 H 0.0 **** 0.0
13365 H 69.6855 99.6726 65.9935 H 0.0 **** 0.0
13366 H 69.4933 98.8906 67.5911 H 0.0 **** 0.0
13367 H 64.3397 103.014 69.0622 H 0.0 **** 0.0
13368 H 63.9935 102.949 67.2623 H 0.0 **** 0.0
13369 H 65.1495 104.127 68.0746 H 0.0 **** 0.0
13370 H 62.2562 99.2336 71.7227 H 0.0 **** 0.0
13371 H 61.8907 99.4594 69.9495 H 0.0 **** 0.0
13372 H 62.9629 100.618 70.8908 H 0.0 **** 0.0
13373 H 62.1645 95.6123 70.4146 H 0.0 **** 0.0
13374 H 61.4528 97.2465 70.2432 H 0.0 **** 0.0
13375 H 61.9346 96.7135 71.8437 H 0.0 **** 0.0
13376 H 63.9571 93.9035 72.3055 H 0.0 **** 0.0
13377 H 64.1494 91.1693 66.4662 H 0.0 **** 0.0
13378 H 63.1303 90.8339 67.9272 H 0.0 **** 0.0
13379 H 64.652 90.0705 67.7682 H 0.0 **** 0.0
13380 H 67.8941 92.025 66.6348 H 0.0 **** 0.0
13381 H 66.2219 92.345 65.9799 H 0.0 **** 0.0
13382 H 66.5911 90.6712 66.5572 H 0.0 **** 0.0
13383 H 69.487 90.0898 72.4697 H 0.0 **** 0.0
13384 H 70.4066 96.5178 71.1986 H 0.0 **** 0.0
13385 H 74.4498 85.3224 78.1735 H 0.0 **** 0.0
13386 H 72.8806 84.3647 78.5639 H 0.0 **** 0.0
13387 H 73.2121 85.764 79.448 H 0.0 **** 0.0
13388 H 72.3004 83.5244 76.5061 H 0.0 **** 0.0
13389 H 70.8319 83.7428 75.5679 H 0.0 **** 0.0
13390 H 70.736 83.7075 77.4343 H 0.0 **** 0.0
13391 C 100.246 49.8563 75.0048 C 0.0 **** 0.0
13392 C 100.082 48.487 75.2614 C 0.0 **** 0.0
13393 C 99.9946 47.9746 76.5885 C 0.0 **** 0.0
13394 C 100.058 48.8339 77.6708 C 0.0 **** 0.0
13395 C 100.284 50.2291 77.4686 C 0.0 **** 0.0
13396 C 100.419 50.7197 76.1181 C 0.0 **** 0.0
13397 C 100.11 48.2839 79.1127 C 0.0 **** 0.0
13398 C 100.147 46.7971 79.3711 C 0.0 **** 0.0
13399 C 99.9758 45.9372 78.2727 C 0.0 **** 0.0
13400 C 99.8818 46.4878 76.8682 C 0.0 **** 0.0
13401 C 99.9092 44.5174 78.424 C 0.0 **** 0.0
13402 C 100.256 43.9679 79.6466 C 0.0 **** 0.0
13403 C 100.317 44.7974 80.8272 C 0.0 **** 0.0
13404 C 100.265 46.2002 80.7064 C 0.0 **** 0.0
13405 C 100.439 46.9866 81.8552 C 0.0 **** 0.0
13406 C 100.399 46.4502 83.1352 C 0.0 **** 0.0
13407 C 100.538 45.0404 83.255 C 0.0 **** 0.0
13408 C 100.298 44.2287 82.116 C 0.0 **** 0.0
13409 C 100.91 44.3993 84.5997 C 0.0 **** 0.0
13410 C 101.232 45.3962 85.7042 C 0.0 **** 0.0
13411 C 100.508 46.6566 85.5789 C 0.0 **** 0.0
13412 C 100.274 47.2513 84.3019 C 0.0 **** 0.0
13413 C 102.736 45.5039 85.9871 C 0.0 **** 0.0
13414 C 103.365 44.1137 86.4149 C 0.0 **** 0.0
13415 C 102.685 42.949 85.8034 C 0.0 **** 0.0
13416 C 102.095 43.3706 84.4255 C 0.0 **** 0.0
13417 C 99.7477 48.5887 84.3076 C 0.0 **** 0.0
13418 C 99.542 49.313 85.5145 C 0.0 **** 0.0
13419 C 99.6517 48.6349 86.7312 C 0.0 **** 0.0
13420 C 100.082 47.3127 86.769 C 0.0 **** 0.0
13421 C 99.4762 49.4408 88.0013 C 0.0 **** 0.0
13422 C 98.7832 50.7635 87.9637 C 0.0 **** 0.0
13423 C 98.5083 51.3392 86.7252 C 0.0 **** 0.0
13424 C 99.188 50.7718 85.5232 C 0.0 **** 0.0
13425 C 97.581 52.5652 86.6349 C 0.0 **** 0.0
13426 C 97.871 53.5468 87.7803 C 0.0 **** 0.0
13427 C 98.1909 52.8446 89.1081 C 0.0 **** 0.0
13428 C 98.4757 51.4597 89.159 C 0.0 **** 0.0
13429 N 98.7426 50.8977 90.3721 N 0.0 **** 0.0
13430 C 98.8701 51.6083 91.5349 C 0.0 **** 0.0
13431 C 98.8187 53.0358 91.4742 C 0.0 **** 0.0
13432 C 98.4419 53.6201 90.269 C 0.0 **** 0.0
13433 C 98.343 55.1446 90.1219 C 0.0 **** 0.0
13434 C 98.5583 55.8938 91.4344 C 0.0 **** 0.0
13435 C 99.5709 55.261 92.3712 C 0.0 **** 0.0
13436 C 99.0209 53.873 92.7563 C 0.0 **** 0.0
13437 C 99.8293 53.0883 93.756 C 0.0 **** 0.0
13438 C 99.2794 51.6725 93.9345 C 0.0 **** 0.0
13439 C 98.9853 50.9226 92.7487 C 0.0 **** 0.0
13440 C 98.5904 49.5651 92.8996 C 0.0 **** 0.0
13441 C 98.418 48.9588 94.1465 C 0.0 **** 0.0
13442 C 98.7107 49.6775 95.2677 C 0.0 **** 0.0
13443 C 99.1819 51.0282 95.2051 C 0.0 **** 0.0
13444 C 100.935 52.1431 75.9047 C 0.0 **** 0.0
13445 C 102.459 52.1614 75.6276 C 0.0 **** 0.0
13446 C 100.253 50.3413 73.578 C 0.0 **** 0.0
13447 C 100.208 51.2014 78.6415 C 0.0 **** 0.0
13448 C 99.7903 47.543 74.1327 C 0.0 **** 0.0
13449 C 99.5612 43.6056 77.2647 C 0.0 **** 0.0
13450 C 100.886 42.5664 79.6449 C 0.0 **** 0.0
13451 O 100.072 42.8696 82.2883 O 0.0 **** 0.0
13452 C 101.582 42.2607 86.6776 C 0.0 **** 0.0
13453 C 103.527 44.0595 87.9526 C 0.0 **** 0.0
13454 O 100.225 46.5821 87.9704 O 0.0 **** 0.0
13455 O 99.1854 49.147 83.133 O 0.0 **** 0.0
13456 O 99.476 51.5057 84.5859 O 0.0 **** 0.0
13457 O 99.9624 49.0604 89.0552 O 0.0 **** 0.0
13458 C 99.6135 51.7775 96.4466 C 0.0 **** 0.0
13459 C 98.3798 49.0265 96.5923 C 0.0 **** 0.0
13460 H 101.07 48.6507 79.6185 H 0.0 **** 0.0
13461 H 99.2761 48.6135 79.7519 H 0.0 **** 0.0
13462 H 98.8928 46.1831 76.5094 H 0.0 **** 0.0
13463 H 100.635 45.968 76.2346 H 0.0 **** 0.0
13464 H 100.53 48.0243 81.6983 H 0.0 **** 0.0
13465 H 103.245 45.8099 85.0369 H 0.0 **** 0.0
13466 H 102.968 46.2826 86.7718 H 0.0 **** 0.0
13467 H 104.411 44.1241 86.0313 H 0.0 **** 0.0
13468 H 103.451 42.1832 85.6296 H 0.0 **** 0.0
13469 H 101.864 42.442 83.8726 H 0.0 **** 0.0
13470 H 102.867 43.7862 83.7835 H 0.0 **** 0.0
13471 H 97.7191 53.0102 85.6106 H 0.0 **** 0.0
13472 H 96.4991 52.2611 86.6092 H 0.0 **** 0.0
13473 H 96.9294 54.148 87.8688 H 0.0 **** 0.0
13474 H 98.691 54.2177 87.4091 H 0.0 **** 0.0
13475 H 99.1194 55.4311 89.3802 H 0.0 **** 0.0
13476 H 97.3559 55.5191 89.6861 H 0.0 **** 0.0
13477 H 97.5979 56.0081 91.9721 H 0.0 **** 0.0
13478 H 98.9046 56.904 91.2043 H 0.0 **** 0.0
13479 H 99.6249 55.8962 93.2922 H 0.0 **** 0.0
13480 H 100.511 55.1879 91.8415 H 0.0 **** 0.0
13481 H 98.0044 54.0472 93.1844 H 0.0 **** 0.0
13482 H 100.889 53.0004 93.4052 H 0.0 **** 0.0
13483 H 99.7909 53.6628 94.7392 H 0.0 **** 0.0
13484 H 98.375 48.9576 91.9984 H 0.0 **** 0.0
13485 H 98.0212 47.944 94.1181 H 0.0 **** 0.0
13486 H 100.744 52.8212 76.743 H 0.0 **** 0.0
13487 H 100.349 52.6613 75.0564 H 0.0 **** 0.0
13488 H 102.697 51.6758 74.6361 H 0.0 **** 0.0
13489 H 102.936 51.5824 76.4139 H 0.0 **** 0.0
13490 H 102.81 53.209 75.5238 H 0.0 **** 0.0
13491 H 100.447 51.3988 73.4421 H 0.0 **** 0.0
13492 H 99.2695 50.1223 73.0687 H 0.0 **** 0.0
13493 H 101.027 49.7955 73.0206 H 0.0 **** 0.0
13494 H 99.9022 50.7567 79.6098 H 0.0 **** 0.0
13495 H 99.3936 51.937 78.4229 H 0.0 **** 0.0
13496 H 101.14 51.7805 78.7859 H 0.0 **** 0.0
13497 H 98.8226 47.0597 74.3953 H 0.0 **** 0.0
13498 H 100.641 46.7914 74.0528 H 0.0 **** 0.0
13499 H 99.6349 47.9747 73.1225 H 0.0 **** 0.0
13500 H 99.014 42.7202 77.6862 H 0.0 **** 0.0
13501 H 100.523 43.3072 76.7511 H 0.0 **** 0.0
13502 H 98.818 44.005 76.4693 H 0.0 **** 0.0
13503 H 101.892 42.6046 80.1019 H 0.0 **** 0.0
13504 H 101.081 42.124 78.6268 H 0.0 **** 0.0
13505 H 100.313 41.7515 80.1343 H 0.0 **** 0.0
13506 H 99.7559 42.5654 83.2341 H 0.0 **** 0.0
13507 H 102.011 41.8109 87.6045 H 0.0 **** 0.0
13508 H 101.154 41.3654 86.122 H 0.0 **** 0.0
13509 H 100.743 42.9563 86.9032 H 0.0 **** 0.0
13510 H 104.086 44.9544 88.2566 H 0.0 **** 0.0
13511 H 104.094 43.1522 88.2651 H 0.0 **** 0.0
13512 H 102.516 44.1035 88.4318 H 0.0 **** 0.0
13513 H 99.4551 46.7663 88.6135 H 0.0 **** 0.0
13514 H 98.2928 49.6217 83.3432 H 0.0 **** 0.0
13515 H 100.665 52.0977 96.3521 H 0.0 **** 0.0
13516 H 99.5394 51.1938 97.3587 H 0.0 **** 0.0
13517 H 98.9482 52.6957 96.5423 H 0.0 **** 0.0
13518 H 99.3378 48.877 97.1339 H 0.0 **** 0.0
13519 H 97.7912 48.0787 96.4271 H 0.0 **** 0.0
13520 H 97.7427 49.6753 97.209 H 0.0 **** 0.0
13521 C 63.289 56.6789 21.6815 C 0.0 **** 0.0
13522 C 64.1666 56.9677 20.6045 C 0.0 **** 0.0
13523 C 63.6262 57.0494 19.2924 C 0.0 **** 0.0
13524 C 62.2266 56.9626 19.0561 C 0.0 **** 0.0
13525 C 61.3655 57.0209 20.2004 C 0.0 **** 0.0
13526 C 61.9028 56.8738 21.4806 C 0.0 **** 0.0
13527 C 61.687 57.0223 17.6336 C 0.0 **** 0.0
13528 C 62.7065 56.8943 16.5237 C 0.0 **** 0.0
13529 C 64.0715 56.9525 16.7704 C 0.0 **** 0.0
13530 C 64.6181 57.2556 18.1536 C 0.0 **** 0.0
13531 C 65.018 56.7714 15.7146 C 0.0 **** 0.0
13532 C 64.5561 56.6882 14.3623 C 0.0 **** 0.0
13533 C 63.1866 56.9405 14.0821 C 0.0 **** 0.0
13534 C 62.2601 56.8446 15.1801 C 0.0 **** 0.0
13535 C 60.8692 56.9047 14.7889 C 0.0 **** 0.0
13536 C 60.4411 57.1609 13.4858 C 0.0 **** 0.0
13537 C 61.3897 57.5023 12.512 C 0.0 **** 0.0
13538 C 62.7602 57.4587 12.8301 C 0.0 **** 0.0
13539 C 60.9702 57.9062 11.1266 C 0.0 **** 0.0
13540 C 59.57 58.5913 11.0953 C 0.0 **** 0.0
13541 C 58.6462 58.2875 12.2646 C 0.0 **** 0.0
13542 C 59.0723 57.3735 13.2636 C 0.0 **** 0.0
13543 C 58.9122 58.4368 9.70311 C 0.0 **** 0.0
13544 C 58.7748 56.9448 9.23656 C 0.0 **** 0.0
13545 C 59.6444 56.0075 9.97965 C 0.0 **** 0.0
13546 C 61.0413 56.6366 10.2004 C 0.0 **** 0.0
13547 C 58.0394 56.7413 13.9897 C 0.0 **** 0.0
13548 C 56.7063 57.1686 13.8868 C 0.0 **** 0.0
13549 C 56.4212 58.314 13.1776 C 0.0 **** 0.0
13550 C 57.3774 58.8713 12.3206 C 0.0 **** 0.0
13551 C 55.0624 58.8754 13.2439 C 0.0 **** 0.0
13552 C 53.9636 58.2074 13.9936 C 0.0 **** 0.0
13553 C 54.1992 56.976 14.5866 C 0.0 **** 0.0
13554 C 55.5769 56.4397 14.5933 C 0.0 **** 0.0
13555 C 53.0521 56.2039 15.1777 C 0.0 **** 0.0
13556 C 52.0121 57.1438 15.8004 C 0.0 **** 0.0
13557 C 51.7674 58.4188 15.0739 C 0.0 **** 0.0
13558 C 52.7265 58.8703 14.1836 C 0.0 **** 0.0
13559 N 52.5446 60.0921 13.5937 N 0.0 **** 0.0
13560 C 51.4671 60.8437 13.766 C 0.0 **** 0.0
13561 C 50.4662 60.4041 14.6616 C 0.0 **** 0.0
13562 C 50.6338 59.1824 15.3445 C 0.0 **** 0.0
13563 C 49.5062 58.6467 16.2431 C 0.0 **** 0.0
13564 C 48.5859 59.697 16.7972 C 0.0 **** 0.0
13565 C 48.1808 60.6679 15.6793 C 0.0 **** 0.0
13566 C 49.4089 61.4131 15.1045 C 0.0 **** 0.0
13567 C 49.0775 62.4227 13.9971 C 0.0 **** 0.0
13568 C 50.3714 63.0238 13.3857 C 0.0 **** 0.0
13569 C 51.4567 62.161 13.2172 C 0.0 **** 0.0
13570 C 52.6227 62.678 12.5781 C 0.0 **** 0.0
13571 C 52.6963 64.0019 12.1155 C 0.0 **** 0.0
13572 C 51.6539 64.8568 12.3239 C 0.0 **** 0.0
13573 C 50.4623 64.4027 12.9854 C 0.0 **** 0.0
13574 C 61.0058 56.7728 22.6942 C 0.0 **** 0.0
13575 C 60.4584 55.395 23.028 C 0.0 **** 0.0
13576 C 63.8953 56.1594 22.9736 C 0.0 **** 0.0
13577 C 59.8668 57.2045 20.0258 C 0.0 **** 0.0
13578 C 65.6524 57.1991 20.96 C 0.0 **** 0.0
13579 C 66.5502 56.8934 15.9679 C 0.0 **** 0.0
13580 C 65.5101 56.2632 13.2705 C 0.0 **** 0.0
13581 O 63.7448 58.1204 12.0486 O 0.0 **** 0.0
13582 C 59.7788 54.618 9.35222 C 0.0 **** 0.0
13583 C 58.9716 56.8999 7.72803 C 0.0 **** 0.0
13584 O 57.07 60.0226 11.5718 O 0.0 **** 0.0
13585 O 58.2909 55.5608 14.6898 O 0.0 **** 0.0
13586 O 55.7496 55.3651 15.1619 O 0.0 **** 0.0
13587 O 54.7972 59.8796 12.6323 O 0.0 **** 0.0
13588 C 49.3585 65.381 13.2655 C 0.0 **** 0.0
13589 C 51.8263 66.2968 11.9384 C 0.0 **** 0.0
13590 H 61.022 56.1322 17.5172 H 0.0 **** 0.0
13591 H 61.0484 57.9003 17.3802 H 0.0 **** 0.0
13592 H 64.9256 58.2989 18.2207 H 0.0 **** 0.0
13593 H 65.4656 56.5744 18.3663 H 0.0 **** 0.0
13594 H 60.1261 56.8518 15.6052 H 0.0 **** 0.0
13595 H 57.9355 58.8923 9.72268 H 0.0 **** 0.0
13596 H 59.5062 59.1349 9.01828 H 0.0 **** 0.0
13597 H 57.7416 56.6841 9.46819 H 0.0 **** 0.0
13598 H 59.1767 55.806 10.962 H 0.0 **** 0.0
13599 H 61.5049 57.048 9.28556 H 0.0 **** 0.0
13600 H 61.7123 55.8809 10.5831 H 0.0 **** 0.0
13601 H 52.5905 55.5333 14.3721 H 0.0 **** 0.0
13602 H 53.4121 55.4303 15.9564 H 0.0 **** 0.0
13603 H 52.423 57.48 16.8074 H 0.0 **** 0.0
13604 H 51.0959 56.5878 16.0793 H 0.0 **** 0.0
13605 H 48.8677 57.9083 15.731 H 0.0 **** 0.0
13606 H 49.9072 58.1833 17.1661 H 0.0 **** 0.0
13607 H 49.0927 60.2815 17.626 H 0.0 **** 0.0
13608 H 47.7206 59.196 17.2248 H 0.0 **** 0.0
13609 H 47.5298 61.4839 16.0476 H 0.0 **** 0.0
13610 H 47.6198 60.121 14.909 H 0.0 **** 0.0
13611 H 49.9259 61.9169 15.9364 H 0.0 **** 0.0
13612 H 48.5242 61.887 13.1828 H 0.0 **** 0.0
13613 H 48.4661 63.2054 14.4573 H 0.0 **** 0.0
13614 H 53.4978 62.0562 12.3923 H 0.0 **** 0.0
13615 H 53.6008 64.318 11.6291 H 0.0 **** 0.0
13616 H 60.1528 57.4582 22.5597 H 0.0 **** 0.0
13617 H 61.5634 57.165 23.561 H 0.0 **** 0.0
13618 H 61.1322 54.6047 22.5459 H 0.0 **** 0.0
13619 H 59.4321 55.2857 22.6525 H 0.0 **** 0.0
13620 H 60.4611 55.3019 24.1508 H 0.0 **** 0.0
13621 H 64.832 55.5866 22.7956 H 0.0 **** 0.0
13622 H 63.1973 55.4308 23.5104 H 0.0 **** 0.0
13623 H 64.0497 56.9311 23.7651 H 0.0 **** 0.0
13624 H 59.3182 56.4417 20.5539 H 0.0 **** 0.0
13625 H 59.5264 57.1061 18.9847 H 0.0 **** 0.0
13626 H 59.5158 58.1764 20.4003 H 0.0 **** 0.0
13627 H 66.1185 58.0419 20.3522 H 0.0 **** 0.0
13628 H 66.2024 56.2458 20.889 H 0.0 **** 0.0
13629 H 65.771 57.5769 21.9498 H 0.0 **** 0.0
13630 H 67.0799 57.2811 15.0936 H 0.0 **** 0.0
13631 H 66.9909 55.8529 16.1476 H 0.0 **** 0.0
13632 H 66.8414 57.5269 16.829 H 0.0 **** 0.0
13633 H 64.8851 55.9117 12.4209 H 0.0 **** 0.0
13634 H 66.04 55.3335 13.5498 H 0.0 **** 0.0
13635 H 66.1397 57.0618 12.9907 H 0.0 **** 0.0
13636 H 63.4133 58.5775 11.2281 H 0.0 **** 0.0
13637 H 60.4677 53.9504 9.92655 H 0.0 **** 0.0
13638 H 60.2359 54.7531 8.33838 H 0.0 **** 0.0
13639 H 58.7983 54.0819 9.23786 H 0.0 **** 0.0
13640 H 58.6612 55.944 7.28359 H 0.0 **** 0.0
13641 H 60.042 57.1132 7.50128 H 0.0 **** 0.0
13642 H 58.3893 57.7327 7.19877 H 0.0 **** 0.0
13643 H 57.844 60.6987 11.5876 H 0.0 **** 0.0
13644 H 59.137 54.9987 14.5222 H 0.0 **** 0.0
13645 H 48.3786 64.8613 12.9997 H 0.0 **** 0.0
13646 H 49.361 66.2856 12.5574 H 0.0 **** 0.0
13647 H 49.3661 65.6898 14.3126 H 0.0 **** 0.0
13648 H 51.1584 66.5327 11.0599 H 0.0 **** 0.0
13649 H 52.8528 66.4908 11.6063 H 0.0 **** 0.0
13650 H 51.6283 66.9211 12.7992 H 0.0 **** 0.0
13651 C 84.5264 3.23514 14.0457 C 0.0 **** 0.0
13652 C 85.4433 4.11277 14.6345 C 0.0 **** 0.0
13653 C 86.2743 4.90532 13.8128 C 0.0 **** 0.0
13654 C 85.9897 4.98902 12.4301 C 0.0 **** 0.0
13655 C 84.8386 4.32938 11.902 C 0.0 **** 0.0
13656 C 84.1155 3.40069 12.7074 C 0.0 **** 0.0
13657 C 86.8645 5.77265 11.5452 C 0.0 **** 0.0
13658 C 88.2356 6.16784 12.0807 C 0.0 **** 0.0
13659 C 88.5131 6.00489 13.453 C 0.0 **** 0.0
13660 C 87.43 5.63564 14.444 C 0.0 **** 0.0
13661 C 89.8247 6.14218 13.9233 C 0.0 **** 0.0
13662 C 90.8863 6.35148 13.0487 C 0.0 **** 0.0
13663 C 90.5973 6.68936 11.6977 C 0.0 **** 0.0
13664 C 89.2607 6.61488 11.2084 C 0.0 **** 0.0
13665 C 88.9986 6.98442 9.89453 C 0.0 **** 0.0
13666 C 90.0138 7.34301 9.00006 C 0.0 **** 0.0
13667 C 91.3465 7.15919 9.41281 C 0.0 **** 0.0
13668 C 91.6313 6.98819 10.7958 C 0.0 **** 0.0
13669 C 92.5008 7.07798 8.40934 C 0.0 **** 0.0
13670 C 92.0039 7.12459 6.95984 C 0.0 **** 0.0
13671 C 90.7372 7.91859 6.71675 C 0.0 **** 0.0
13672 C 89.7464 7.95995 7.71925 C 0.0 **** 0.0
13673 C 91.8708 5.74476 6.29045 C 0.0 **** 0.0
13674 C 93.2399 5.09129 6.16056 C 0.0 **** 0.0
13675 C 94.1864 5.47499 7.27153 C 0.0 **** 0.0
13676 C 93.4247 5.83113 8.5685 C 0.0 **** 0.0
13677 C 88.509 8.62223 7.45073 C 0.0 **** 0.0
13678 C 88.2981 9.16756 6.19304 C 0.0 **** 0.0
13679 C 89.25 9.0626 5.17936 C 0.0 **** 0.0
13680 C 90.4818 8.4277 5.44223 C 0.0 **** 0.0
13681 C 88.925 9.62054 3.82298 C 0.0 **** 0.0
13682 C 87.5298 10.0436 3.53632 C 0.0 **** 0.0
13683 C 86.7331 10.4314 4.57141 C 0.0 **** 0.0
13684 C 87.1554 10.082 5.96395 C 0.0 **** 0.0
13685 C 85.29 10.8069 4.35316 C 0.0 **** 0.0
13686 C 84.8763 11.1723 2.93691 C 0.0 **** 0.0
13687 C 85.6962 10.4494 1.88872 C 0.0 **** 0.0
13688 C 86.9463 9.95351 2.22961 C 0.0 **** 0.0
13689 N 87.6936 9.3544 1.30838 N 0.0 **** 0.0
13690 C 87.3438 9.27078 0.00226657 C 0.0 **** 0.0
13691 C 86.0835 9.68774 -0.41346 C 0.0 **** 0.0
13692 C 85.2747 10.337 0.527186 C 0.0 **** 0.0
13693 C 83.8739 10.797 0.0872159 C 0.0 **** 0.0
13694 C 83.7509 11.1471 -1.40808 C 0.0 **** 0.0
13695 C 84.3631 10.0784 -2.34568 C 0.0 **** 0.0
13696 C 85.8395 9.88788 -1.93423 C 0.0 **** 0.0
13697 C 86.4447 8.70864 -2.7188 C 0.0 **** 0.0
13698 C 87.918 8.52961 -2.29737 C 0.0 **** 0.0
13699 C 88.2747 8.79393 -0.936597 C 0.0 **** 0.0
13700 C 89.6468 8.58418 -0.57219 C 0.0 **** 0.0
13701 C 90.5714 8.06144 -1.45215 C 0.0 **** 0.0
13702 C 90.237 7.81483 -2.77122 C 0.0 **** 0.0
13703 C 88.9201 8.10371 -3.22267 C 0.0 **** 0.0
13704 C 83.0142 2.46008 12.1408 C 0.0 **** 0.0
13705 C 83.5774 1.37019 11.244 C 0.0 **** 0.0
13706 C 84.2404 1.92132 14.8589 C 0.0 **** 0.0
13707 C 84.3834 4.63327 10.4752 C 0.0 **** 0.0
13708 C 85.5393 4.19396 16.1367 C 0.0 **** 0.0
13709 C 90.1132 6.0512 15.4476 C 0.0 **** 0.0
13710 C 92.3079 5.97982 13.4253 C 0.0 **** 0.0
13711 O 92.8998 7.35743 11.2723 O 0.0 **** 0.0
13712 C 95.1689 6.65357 6.9961 C 0.0 **** 0.0
13713 C 93.8107 5.31283 4.73864 C 0.0 **** 0.0
13714 O 91.4906 8.26866 4.48066 O 0.0 **** 0.0
13715 O 87.7154 8.99797 8.50561 O 0.0 **** 0.0
13716 O 86.5146 10.5412 6.89874 O 0.0 **** 0.0
13717 O 89.7933 9.81422 2.97083 O 0.0 **** 0.0
13718 C 88.5604 8.06175 -4.67323 C 0.0 **** 0.0
13719 C 91.3804 7.30124 -3.61448 C 0.0 **** 0.0
13720 H 87.0869 5.08861 10.685 H 0.0 **** 0.0
13721 H 86.3434 6.66657 11.1857 H 0.0 **** 0.0
13722 H 87.0538 6.54344 14.9767 H 0.0 **** 0.0
13723 H 87.8115 4.9373 15.2136 H 0.0 **** 0.0
13724 H 87.973 6.88709 9.52777 H 0.0 **** 0.0
13725 H 91.3156 5.1077 7.03491 H 0.0 **** 0.0
13726 H 91.3191 5.62732 5.31815 H 0.0 **** 0.0
13727 H 93.0061 4.00161 6.22248 H 0.0 **** 0.0
13728 H 94.7767 4.57818 7.47948 H 0.0 **** 0.0
13729 H 94.1796 6.06969 9.31864 H 0.0 **** 0.0
13730 H 92.8554 4.92472 8.90938 H 0.0 **** 0.0
13731 H 84.6917 9.90263 4.61537 H 0.0 **** 0.0
13732 H 84.9804 11.64 5.04496 H 0.0 **** 0.0
13733 H 84.9589 12.2638 2.84579 H 0.0 **** 0.0
13734 H 83.8285 10.8876 2.86989 H 0.0 **** 0.0
13735 H 83.1835 9.96838 0.319362 H 0.0 **** 0.0
13736 H 83.5184 11.6369 0.673991 H 0.0 **** 0.0
13737 H 84.1757 12.1412 -1.62263 H 0.0 **** 0.0
13738 H 82.6737 11.2319 -1.60984 H 0.0 **** 0.0
13739 H 84.2786 10.3793 -3.40003 H 0.0 **** 0.0
13740 H 83.8249 9.11345 -2.23769 H 0.0 **** 0.0
13741 H 86.3752 10.7901 -2.21776 H 0.0 **** 0.0
13742 H 85.9239 7.79038 -2.44802 H 0.0 **** 0.0
13743 H 86.3356 8.89481 -3.77045 H 0.0 **** 0.0
13744 H 90.0119 8.82915 0.435758 H 0.0 **** 0.0
13745 H 91.5681 7.90963 -1.06155 H 0.0 **** 0.0
13746 H 82.2567 2.99486 11.529 H 0.0 **** 0.0
13747 H 82.4429 2.01472 12.9809 H 0.0 **** 0.0
13748 H 84.4193 0.789793 11.7219 H 0.0 **** 0.0
13749 H 83.9115 1.81256 10.2391 H 0.0 **** 0.0
13750 H 82.7306 0.619339 11.0038 H 0.0 **** 0.0
13751 H 85.0811 1.68133 15.5942 H 0.0 **** 0.0
13752 H 84.1608 1.05926 14.165 H 0.0 **** 0.0
13753 H 83.2848 2.0512 15.4023 H 0.0 **** 0.0
13754 H 85.1978 4.43081 9.76493 H 0.0 **** 0.0
13755 H 84.2009 5.72425 10.3561 H 0.0 **** 0.0
13756 H 83.4775 4.12247 10.205 H 0.0 **** 0.0
13757 H 86.3809 3.61754 16.5768 H 0.0 **** 0.0
13758 H 84.5934 3.86449 16.6581 H 0.0 **** 0.0
13759 H 85.5995 5.28613 16.3811 H 0.0 **** 0.0
13760 H 90.4842 5.04759 15.7471 H 0.0 **** 0.0
13761 H 89.2578 6.39476 16.0118 H 0.0 **** 0.0
13762 H 90.908 6.76207 15.7847 H 0.0 **** 0.0
13763 H 92.8677 5.33452 12.6773 H 0.0 **** 0.0
13764 H 92.3134 5.2917 14.288 H 0.0 **** 0.0
13765 H 92.8521 6.84438 13.7456 H 0.0 **** 0.0
13766 H 93.4538 7.8814 10.6011 H 0.0 **** 0.0
13767 H 95.6941 6.59168 6.03264 H 0.0 **** 0.0
13768 H 95.8738 6.67278 7.81136 H 0.0 **** 0.0
13769 H 94.5917 7.60652 6.9426 H 0.0 **** 0.0
13770 H 93.1287 4.82198 4.00234 H 0.0 **** 0.0
13771 H 94.8172 4.7931 4.68668 H 0.0 **** 0.0
13772 H 93.9432 6.41203 4.50544 H 0.0 **** 0.0
13773 H 91.2731 8.3155 3.52607 H 0.0 **** 0.0
13774 H 86.8512 8.44766 8.49013 H 0.0 **** 0.0
13775 H 87.7379 7.35895 -4.81941 H 0.0 **** 0.0
13776 H 89.3622 7.54021 -5.25116 H 0.0 **** 0.0
13777 H 88.3958 9.11859 -5.048 H 0.0 **** 0.0
13778 H 90.993 6.36334 -4.10303 H 0.0 **** 0.0
13779 H 92.3104 7.07789 -3.05878 H 0.0 **** 0.0
13780 H 91.5777 7.9484 -4.51404 H 0.0 **** 0.0
13781 C 72.6241 45.4701 22.0681 C 0.0 **** 0.0
13782 C 71.2658 45.4861 22.574 C 0.0 **** 0.0
13783 C 70.2735 46.1375 21.834 C 0.0 **** 0.0
13784 C 70.5902 46.7201 20.5952 C 0.0 **** 0.0
13785 C 71.9451 46.6804 20.0598 C 0.0 **** 0.0
13786 C 72.9428 46.0359 20.797 C 0.0 **** 0.0
13787 C 69.5093 47.4122 19.7475 C 0.0 **** 0.0
13788 C 68.1041 47.439 20.2978 C 0.0 **** 0.0
13789 C 67.8143 46.8647 21.5884 C 0.0 **** 0.0
13790 C 68.8472 46.0286 22.2924 C 0.0 **** 0.0
13791 C 66.5294 46.9738 22.1371 C 0.0 **** 0.0
13792 C 65.567 47.7141 21.4126 C 0.0 **** 0.0
13793 C 65.7555 48.1408 20.0676 C 0.0 **** 0.0
13794 C 67.0529 48.0561 19.558 C 0.0 **** 0.0
13795 C 67.3119 48.7003 18.2929 C 0.0 **** 0.0
13796 C 66.3346 49.3481 17.5399 C 0.0 **** 0.0
13797 C 65.0349 49.3872 18.0418 C 0.0 **** 0.0
13798 C 64.736 48.7014 19.2348 C 0.0 **** 0.0
13799 C 63.9472 49.9946 17.1308 C 0.0 **** 0.0
13800 C 64.4685 51.2481 16.5596 C 0.0 **** 0.0
13801 C 65.8269 51.0473 15.8573 C 0.0 **** 0.0
13802 C 66.6972 50.0642 16.3492 C 0.0 **** 0.0
13803 C 64.4947 52.4458 17.4735 C 0.0 **** 0.0
13804 C 63.7725 52.1468 18.8182 C 0.0 **** 0.0
13805 C 62.4414 51.4654 18.6854 C 0.0 **** 0.0
13806 C 62.5496 50.2519 17.7153 C 0.0 **** 0.0
13807 C 67.8886 49.747 15.5959 C 0.0 **** 0.0
13808 C 68.3093 50.5939 14.5587 C 0.0 **** 0.0
13809 C 67.4804 51.6103 14.131 C 0.0 **** 0.0
13810 C 66.1999 51.7923 14.7316 C 0.0 **** 0.0
13811 C 67.8673 52.3669 12.8956 C 0.0 **** 0.0
13812 C 69.1305 51.9908 12.1413 C 0.0 **** 0.0
13813 C 69.9918 50.9913 12.6593 C 0.0 **** 0.0
13814 C 69.6911 50.541 14.0224 C 0.0 **** 0.0
13815 C 71.3366 50.643 12.0656 C 0.0 **** 0.0
13816 C 71.5624 51.0837 10.6261 C 0.0 **** 0.0
13817 C 70.7696 52.3284 10.2926 C 0.0 **** 0.0
13818 C 69.6576 52.7765 11.0822 C 0.0 **** 0.0
13819 N 69.0442 53.9479 10.8024 N 0.0 **** 0.0
13820 C 69.4274 54.7469 9.78033 C 0.0 **** 0.0
13821 C 70.485 54.2831 8.92891 C 0.0 **** 0.0
13822 C 71.1007 53.0595 9.11816 C 0.0 **** 0.0
13823 C 72.0405 52.477 8.07877 C 0.0 **** 0.0
13824 C 72.0505 53.2108 6.74489 C 0.0 **** 0.0
13825 C 72.0687 54.7323 6.97353 C 0.0 **** 0.0
13826 C 70.7347 55.1256 7.65613 C 0.0 **** 0.0
13827 C 70.8341 56.5889 8.10295 C 0.0 **** 0.0
13828 C 69.527 56.9818 8.78896 C 0.0 **** 0.0
13829 C 68.8561 56.0407 9.58957 C 0.0 **** 0.0
13830 C 67.583 56.314 10.1029 C 0.0 **** 0.0
13831 C 66.9643 57.4684 9.84874 C 0.0 **** 0.0
13832 C 67.6445 58.4782 9.16489 C 0.0 **** 0.0
13833 C 68.9186 58.2532 8.57883 C 0.0 **** 0.0
13834 C 74.3315 45.9565 20.2235 C 0.0 **** 0.0
13835 C 75.1849 47.1883 20.5705 C 0.0 **** 0.0
13836 C 73.7334 45.016 22.9953 C 0.0 **** 0.0
13837 C 72.2181 47.2911 18.6813 C 0.0 **** 0.0
13838 C 70.9858 44.7355 23.8829 C 0.0 **** 0.0
13839 C 66.2032 46.3537 23.5101 C 0.0 **** 0.0
13840 C 64.3609 48.2454 22.1375 C 0.0 **** 0.0
13841 O 63.4017 48.4228 19.5494 O 0.0 **** 0.0
13842 C 61.2787 52.3725 18.2277 C 0.0 **** 0.0
13843 C 63.7244 53.433 19.6414 C 0.0 **** 0.0
13844 O 65.2627 52.6518 14.1349 O 0.0 **** 0.0
13845 O 68.4996 48.4846 15.7815 O 0.0 **** 0.0
13846 O 70.6278 50.1562 14.6925 O 0.0 **** 0.0
13847 O 67.1862 53.3055 12.522 O 0.0 **** 0.0
13848 C 69.7461 59.3587 7.92393 C 0.0 **** 0.0
13849 C 66.9263 59.799 9.02652 C 0.0 **** 0.0
13850 H 69.8496 48.4415 19.6025 H 0.0 **** 0.0
13851 H 69.4345 46.8931 18.7762 H 0.0 **** 0.0
13852 H 68.6041 44.9258 22.1909 H 0.0 **** 0.0
13853 H 68.9173 46.3227 23.3579 H 0.0 **** 0.0
13854 H 68.3309 48.8641 18.0491 H 0.0 **** 0.0
13855 H 65.5193 52.803 17.7141 H 0.0 **** 0.0
13856 H 63.9616 53.2005 16.9104 H 0.0 **** 0.0
13857 H 64.401 51.4997 19.4695 H 0.0 **** 0.0
13858 H 62.1276 51.0514 19.6718 H 0.0 **** 0.0
13859 H 62.0209 50.4741 16.7678 H 0.0 **** 0.0
13860 H 61.9498 49.387 18.1096 H 0.0 **** 0.0
13861 H 72.0925 51.0961 12.6746 H 0.0 **** 0.0
13862 H 71.4885 49.5332 12.1355 H 0.0 **** 0.0
13863 H 71.1649 50.3129 10.0455 H 0.0 **** 0.0
13864 H 72.6172 51.3027 10.4278 H 0.0 **** 0.0
13865 H 73.0663 52.5073 8.47862 H 0.0 **** 0.0
13866 H 71.8357 51.3862 7.93987 H 0.0 **** 0.0
13867 H 71.1739 52.915 6.18674 H 0.0 **** 0.0
13868 H 72.9431 52.9117 6.20241 H 0.0 **** 0.0
13869 H 72.1049 55.2557 5.99802 H 0.0 **** 0.0
13870 H 72.9434 54.9866 7.6053 H 0.0 **** 0.0
13871 H 69.8541 54.8795 6.96113 H 0.0 **** 0.0
13872 H 71.7205 56.7255 8.82372 H 0.0 **** 0.0
13873 H 71.0082 57.1746 7.21649 H 0.0 **** 0.0
13874 H 66.9728 55.5381 10.6585 H 0.0 **** 0.0
13875 H 65.9308 57.5292 10.1942 H 0.0 **** 0.0
13876 H 74.404 45.766 19.1424 H 0.0 **** 0.0
13877 H 74.8818 45.0833 20.6583 H 0.0 **** 0.0
13878 H 74.6916 47.8242 21.3654 H 0.0 **** 0.0
13879 H 75.3633 47.7923 19.6683 H 0.0 **** 0.0
13880 H 76.1775 46.8806 21.0318 H 0.0 **** 0.0
13881 H 73.5613 45.5545 23.9529 H 0.0 **** 0.0
13882 H 74.7775 45.268 22.7048 H 0.0 **** 0.0
13883 H 73.6466 43.9352 23.1976 H 0.0 **** 0.0
13884 H 71.6997 48.2286 18.6333 H 0.0 **** 0.0
13885 H 71.934 46.6251 17.8871 H 0.0 **** 0.0
13886 H 73.2775 47.5255 18.4959 H 0.0 **** 0.0
13887 H 69.9679 44.8186 24.2464 H 0.0 **** 0.0
13888 H 71.6552 45.0266 24.7182 H 0.0 **** 0.0
13889 H 71.1754 43.6775 23.6571 H 0.0 **** 0.0
13890 H 65.1442 46.0606 23.5235 H 0.0 **** 0.0
13891 H 66.304 47.1549 24.2948 H 0.0 **** 0.0
13892 H 66.7729 45.4406 23.6747 H 0.0 **** 0.0
13893 H 64.2081 49.2698 21.7822 H 0.0 **** 0.0
13894 H 64.5289 48.3687 23.236 H 0.0 **** 0.0
13895 H 63.4824 47.604 21.995 H 0.0 **** 0.0
13896 H 63.052 47.6082 19.039 H 0.0 **** 0.0
13897 H 61.1149 53.1718 18.976 H 0.0 **** 0.0
13898 H 60.3521 51.7699 18.064 H 0.0 **** 0.0
13899 H 61.517 52.877 17.2201 H 0.0 **** 0.0
13900 H 64.7671 53.8233 19.8377 H 0.0 **** 0.0
13901 H 63.3058 53.2494 20.6596 H 0.0 **** 0.0
13902 H 63.1522 54.2589 19.174 H 0.0 **** 0.0
13903 H 64.415 52.9056 14.6452 H 0.0 **** 0.0
13904 H 69.0897 48.1348 15.0325 H 0.0 **** 0.0
13905 H 70.7792 59.4617 8.36766 H 0.0 **** 0.0
13906 H 69.3006 60.3883 7.96509 H 0.0 **** 0.0
13907 H 69.8859 59.1676 6.85873 H 0.0 **** 0.0
13908 H 67.5123 60.5863 9.61359 H 0.0 **** 0.0
13909 H 65.8751 59.7541 9.40268 H 0.0 **** 0.0
13910 H 66.9096 60.1248 7.99764 H 0.0 **** 0.0
13911 C 94.6333 35.5775 76.0645 C 0.0 **** 0.0
13912 C 95.9984 35.9438 76.058 C 0.0 **** 0.0
13913 C 97.0266 34.9218 75.8624 C 0.0 **** 0.0
13914 C 96.6782 33.6035 75.9535 C 0.0 **** 0.0
13915 C 95.2974 33.2115 76.0802 C 0.0 **** 0.0
13916 C 94.2706 34.1873 76.0552 C 0.0 **** 0.0
13917 C 97.678 32.5046 75.7095 C 0.0 **** 0.0
13918 C 99.0741 32.8799 75.3638 C 0.0 **** 0.0
13919 C 99.4374 34.2263 75.1302 C 0.0 **** 0.0
13920 C 98.4502 35.2949 75.5242 C 0.0 **** 0.0
13921 C 100.754 34.5585 74.6538 C 0.0 **** 0.0
13922 C 101.662 33.5194 74.3173 C 0.0 **** 0.0
13923 C 101.345 32.1855 74.6998 C 0.0 **** 0.0
13924 C 100.031 31.8626 75.1381 C 0.0 **** 0.0
13925 C 99.755 30.5063 75.3266 C 0.0 **** 0.0
13926 C 100.703 29.4999 75.2981 C 0.0 **** 0.0
13927 C 102.038 29.9014 75.2209 C 0.0 **** 0.0
13928 C 102.347 31.154 74.6838 C 0.0 **** 0.0
13929 C 103.127 28.8919 75.5448 C 0.0 **** 0.0
13930 C 102.634 27.6035 76.0864 C 0.0 **** 0.0
13931 C 101.29 27.1256 75.569 C 0.0 **** 0.0
13932 C 100.336 28.1004 75.2389 C 0.0 **** 0.0
13933 C 102.74 27.4104 77.6439 C 0.0 **** 0.0
13934 C 102.822 28.707 78.4032 C 0.0 **** 0.0
13935 C 103.892 29.6169 77.8846 C 0.0 **** 0.0
13936 C 104.309 29.3667 76.4055 C 0.0 **** 0.0
13937 C 99.0498 27.6414 74.782 C 0.0 **** 0.0
13938 C 98.7117 26.2352 74.7918 C 0.0 **** 0.0
13939 C 99.6868 25.2897 75.1625 C 0.0 **** 0.0
13940 C 101.001 25.7428 75.5401 C 0.0 **** 0.0
13941 C 99.2951 23.8591 75.2022 C 0.0 **** 0.0
13942 C 98.0985 23.3937 74.4425 C 0.0 **** 0.0
13943 C 97.0583 24.335 74.291 C 0.0 **** 0.0
13944 C 97.2784 25.7786 74.6192 C 0.0 **** 0.0
13945 C 95.6965 23.915 73.7168 C 0.0 **** 0.0
13946 C 95.4606 22.3929 73.8028 C 0.0 **** 0.0
13947 C 96.7336 21.5441 73.5403 C 0.0 **** 0.0
13948 C 97.9812 22.0888 73.9284 C 0.0 **** 0.0
13949 N 99.0876 21.3338 73.7954 N 0.0 **** 0.0
13950 C 99.0972 20.0436 73.2983 C 0.0 **** 0.0
13951 C 97.8686 19.4706 72.8957 C 0.0 **** 0.0
13952 C 96.6586 20.2326 73.0082 C 0.0 **** 0.0
13953 C 95.3156 19.607 72.5237 C 0.0 **** 0.0
13954 C 95.4495 18.3328 71.6216 C 0.0 **** 0.0
13955 C 96.5261 17.4158 72.1705 C 0.0 **** 0.0
13956 C 97.8781 18.1342 72.1509 C 0.0 **** 0.0
13957 C 98.9684 17.2053 72.6662 C 0.0 **** 0.0
13958 C 100.308 17.8975 72.8045 C 0.0 **** 0.0
13959 C 100.321 19.282 73.2164 C 0.0 **** 0.0
13960 C 101.549 19.8648 73.4385 C 0.0 **** 0.0
13961 C 102.713 19.1228 73.3843 C 0.0 **** 0.0
13962 C 102.73 17.7894 72.9243 C 0.0 **** 0.0
13963 C 101.492 17.1282 72.6188 C 0.0 **** 0.0
13964 C 92.8072 33.7496 76.0397 C 0.0 **** 0.0
13965 C 92.0774 33.9854 77.3624 C 0.0 **** 0.0
13966 C 93.632 36.694 76.0474 C 0.0 **** 0.0
13967 C 94.911 31.7206 76.2569 C 0.0 **** 0.0
13968 C 96.3729 37.4028 76.0982 C 0.0 **** 0.0
13969 C 101.191 36.0482 74.5117 C 0.0 **** 0.0
13970 C 103.02 33.8725 73.6793 C 0.0 **** 0.0
13971 O 103.617 31.3425 74.0849 O 0.0 **** 0.0
13972 C 105.154 29.6614 78.7479 C 0.0 **** 0.0
13973 C 102.903 28.4491 79.9437 C 0.0 **** 0.0
13974 O 102.05 24.8469 75.9408 O 0.0 **** 0.0
13975 O 98.1821 28.5658 74.2133 O 0.0 **** 0.0
13976 O 96.3274 26.5381 74.7578 O 0.0 **** 0.0
13977 O 99.9262 23.0597 75.8438 O 0.0 **** 0.0
13978 C 101.395 15.6795 72.1272 C 0.0 **** 0.0
13979 C 103.986 17.0464 72.751 C 0.0 **** 0.0
13980 H 97.7453 31.9202 76.5945 H 0.0 **** 0.0
13981 H 97.3025 31.975 74.7846 H 0.0 **** 0.0
13982 H 98.2332 35.9774 74.6021 H 0.0 **** 0.0
13983 H 98.8151 35.8451 76.4186 H 0.0 **** 0.0
13984 H 98.7619 30.2685 75.6553 H 0.0 **** 0.0
13985 H 101.932 26.7928 78.0853 H 0.0 **** 0.0
13986 H 103.655 26.7813 77.8002 H 0.0 **** 0.0
13987 H 101.855 29.2728 78.2087 H 0.0 **** 0.0
13988 H 103.464 30.6419 77.936 H 0.0 **** 0.0
13989 H 105.087 28.5978 76.3202 H 0.0 **** 0.0
13990 H 104.74 30.2991 76.0229 H 0.0 **** 0.0
13991 H 94.909 24.4805 74.2518 H 0.0 **** 0.0
13992 H 95.6393 24.2644 72.6486 H 0.0 **** 0.0
13993 H 94.7177 22.1671 73.0278 H 0.0 **** 0.0
13994 H 95.0249 22.2051 74.847 H 0.0 **** 0.0
13995 H 94.6185 19.4138 73.404 H 0.0 **** 0.0
13996 H 94.7842 20.2931 71.784 H 0.0 **** 0.0
13997 H 95.785 18.6509 70.5973 H 0.0 **** 0.0
13998 H 94.5066 17.776 71.4535 H 0.0 **** 0.0
13999 H 96.7014 16.4821 71.5181 H 0.0 **** 0.0
14000 H 96.2018 17.0883 73.1968 H 0.0 **** 0.0
14001 H 98.0931 18.3691 71.0965 H 0.0 **** 0.0
14002 H 98.6929 16.8596 73.6572 H 0.0 **** 0.0
14003 H 99.0287 16.4445 71.8697 H 0.0 **** 0.0
14004 H 101.621 20.848 73.7021 H 0.0 **** 0.0
14005 H 103.607 19.5798 73.6235 H 0.0 **** 0.0
14006 H 92.6998 32.6986 75.7764 H 0.0 **** 0.0
14007 H 92.2713 34.3181 75.2744 H 0.0 **** 0.0
14008 H 91.0754 33.5522 77.2745 H 0.0 **** 0.0
14009 H 91.9157 35.0447 77.5074 H 0.0 **** 0.0
14010 H 92.6627 33.5931 78.2238 H 0.0 **** 0.0
14011 H 93.3733 37.0267 77.0574 H 0.0 **** 0.0
14012 H 92.6366 36.4166 75.5061 H 0.0 **** 0.0
14013 H 93.9896 37.5826 75.465 H 0.0 **** 0.0
14014 H 94.1621 31.5721 76.9963 H 0.0 **** 0.0
14015 H 95.7356 31.0851 76.6613 H 0.0 **** 0.0
14016 H 94.6655 31.2908 75.2757 H 0.0 **** 0.0
14017 H 96.3535 37.8614 75.1241 H 0.0 **** 0.0
14018 H 97.3812 37.5125 76.5635 H 0.0 **** 0.0
14019 H 95.7073 37.9485 76.794 H 0.0 **** 0.0
14020 H 101.207 36.4016 73.4647 H 0.0 **** 0.0
14021 H 102.199 36.1433 74.9333 H 0.0 **** 0.0
14022 H 100.476 36.7311 75.0832 H 0.0 **** 0.0
14023 H 103.84 33.7217 74.4091 H 0.0 **** 0.0
14024 H 103.104 34.9247 73.2917 H 0.0 **** 0.0
14025 H 103.144 33.2763 72.8029 H 0.0 **** 0.0
14026 H 104.09 30.5043 73.78 H 0.0 **** 0.0
14027 H 105.0 30.2367 79.7362 H 0.0 **** 0.0
14028 H 105.993 30.1866 78.2217 H 0.0 **** 0.0
14029 H 105.415 28.6185 78.9184 H 0.0 **** 0.0
14030 H 102.061 27.9214 80.3576 H 0.0 **** 0.0
14031 H 102.868 29.4115 80.4065 H 0.0 **** 0.0
14032 H 103.812 27.8614 80.2495 H 0.0 **** 0.0
14033 H 102.024 24.0128 75.3776 H 0.0 **** 0.0
14034 H 97.5297 28.2018 73.5375 H 0.0 **** 0.0
14035 H 100.788 15.0374 72.762 H 0.0 **** 0.0
14036 H 102.416 15.2072 72.1425 H 0.0 **** 0.0
14037 H 100.997 15.6065 71.0655 H 0.0 **** 0.0
14038 H 104.102 16.3066 73.5956 H 0.0 **** 0.0
14039 H 104.862 17.7509 72.5946 H 0.0 **** 0.0
14040 H 103.96 16.4835 71.7418 H 0.0 **** 0.0
14041 C 53.3336 92.1224 45.1844 C 0.0 **** 0.0
14042 C 52.7844 90.84 45.0763 C 0.0 **** 0.0
14043 C 53.695 89.718 44.951 C 0.0 **** 0.0
14044 C 55.061 89.8637 45.1734 C 0.0 **** 0.0
14045 C 55.5997 91.1433 45.4292 C 0.0 **** 0.0
14046 C 54.7738 92.2948 45.2951 C 0.0 **** 0.0
14047 C 55.9498 88.6376 45.2917 C 0.0 **** 0.0
14048 C 55.3382 87.3079 44.8946 C 0.0 **** 0.0
14049 C 54.0555 87.1831 44.4969 C 0.0 **** 0.0
14050 C 53.1275 88.3646 44.5857 C 0.0 **** 0.0
14051 C 53.5029 85.9168 44.1958 C 0.0 **** 0.0
14052 C 54.3316 84.7446 44.3252 C 0.0 **** 0.0
14053 C 55.6274 84.8734 44.884 C 0.0 **** 0.0
14054 C 56.1716 86.1398 45.0002 C 0.0 **** 0.0
14055 C 57.493 86.2706 45.5551 C 0.0 **** 0.0
14056 C 58.1814 85.1518 45.9796 C 0.0 **** 0.0
14057 C 57.7386 83.8762 45.5705 C 0.0 **** 0.0
14058 C 56.3897 83.7207 45.2605 C 0.0 **** 0.0
14059 C 58.6885 82.6862 45.5877 C 0.0 **** 0.0
14060 C 60.1007 83.0566 45.8826 C 0.0 **** 0.0
14061 C 60.1883 84.1388 47.0057 C 0.0 **** 0.0
14062 C 59.3414 85.2654 46.8679 C 0.0 **** 0.0
14063 C 60.9508 83.5623 44.6893 C 0.0 **** 0.0
14064 C 60.3052 83.1891 43.3395 C 0.0 **** 0.0
14065 C 59.7598 81.8119 43.379 C 0.0 **** 0.0
14066 C 58.5699 81.7394 44.3858 C 0.0 **** 0.0
14067 C 59.4919 86.3203 47.7775 C 0.0 **** 0.0
14068 C 60.6481 86.3649 48.625 C 0.0 **** 0.0
14069 C 61.3536 85.1795 48.859 C 0.0 **** 0.0
14070 C 61.087 84.0277 48.0815 C 0.0 **** 0.0
14071 C 62.4553 85.2058 49.8864 C 0.0 **** 0.0
14072 C 62.9682 86.5466 50.4349 C 0.0 **** 0.0
14073 C 62.3865 87.7279 49.9562 C 0.0 **** 0.0
14074 C 61.1777 87.687 49.1079 C 0.0 **** 0.0
14075 C 62.9968 89.0768 50.2357 C 0.0 **** 0.0
14076 C 63.965 89.152 51.3858 C 0.0 **** 0.0
14077 C 64.5677 87.8265 51.8329 C 0.0 **** 0.0
14078 C 64.0231 86.6262 51.3667 C 0.0 **** 0.0
14079 N 64.5563 85.4288 51.7676 N 0.0 **** 0.0
14080 C 65.5812 85.3246 52.6314 C 0.0 **** 0.0
14081 C 66.1766 86.4983 53.0966 C 0.0 **** 0.0
14082 C 65.6864 87.7669 52.6908 C 0.0 **** 0.0
14083 C 66.3986 89.0534 53.1464 C 0.0 **** 0.0
14084 C 67.277 88.8889 54.4241 C 0.0 **** 0.0
14085 C 68.105 87.5865 54.3444 C 0.0 **** 0.0
14086 C 67.231 86.3608 54.2218 C 0.0 **** 0.0
14087 C 68.1462 85.1296 53.9927 C 0.0 **** 0.0
14088 C 67.42 83.9136 53.4305 C 0.0 **** 0.0
14089 C 66.1445 84.0598 52.8529 C 0.0 **** 0.0
14090 C 65.5114 82.8991 52.3607 C 0.0 **** 0.0
14091 C 66.1264 81.7026 52.2876 C 0.0 **** 0.0
14092 C 67.4906 81.6083 52.6582 C 0.0 **** 0.0
14093 C 68.1758 82.6813 53.2831 C 0.0 **** 0.0
14094 C 55.3949 93.7173 45.2334 C 0.0 **** 0.0
14095 C 55.9892 93.9811 43.8276 C 0.0 **** 0.0
14096 C 52.4395 93.3429 44.8586 C 0.0 **** 0.0
14097 C 57.0653 91.3766 45.8069 C 0.0 **** 0.0
14098 C 51.2842 90.6634 45.0792 C 0.0 **** 0.0
14099 C 52.1168 85.7231 43.5986 C 0.0 **** 0.0
14100 C 53.8385 83.4023 43.8385 C 0.0 **** 0.0
14101 O 55.812 82.4868 45.3613 O 0.0 **** 0.0
14102 C 60.7696 80.6713 43.6106 C 0.0 **** 0.0
14103 C 61.3498 83.3975 42.2484 C 0.0 **** 0.0
14104 O 61.9471 82.9433 48.2442 O 0.0 **** 0.0
14105 O 58.4487 87.2364 47.9236 O 0.0 **** 0.0
14106 O 60.6134 88.7211 48.8317 O 0.0 **** 0.0
14107 O 62.9701 84.1411 50.2443 O 0.0 **** 0.0
14108 C 69.6016 82.5488 53.8142 C 0.0 **** 0.0
14109 C 68.1585 80.3189 52.37 C 0.0 **** 0.0
14110 H 56.8553 88.8449 44.7058 H 0.0 **** 0.0
14111 H 56.2764 88.5488 46.3685 H 0.0 **** 0.0
14112 H 52.3292 88.1154 45.3893 H 0.0 **** 0.0
14113 H 52.6029 88.4217 43.5958 H 0.0 **** 0.0
14114 H 57.9761 87.1842 45.6591 H 0.0 **** 0.0
14115 H 61.0272 84.6468 44.7613 H 0.0 **** 0.0
14116 H 61.977 83.1251 44.754 H 0.0 **** 0.0
14117 H 59.4155 83.8568 43.0585 H 0.0 **** 0.0
14118 H 59.2795 81.6396 42.408 H 0.0 **** 0.0
14119 H 58.471 80.7684 44.8094 H 0.0 **** 0.0
14120 H 57.6037 81.8512 43.7726 H 0.0 **** 0.0
14121 H 63.5072 89.4618 49.2901 H 0.0 **** 0.0
14122 H 62.2228 89.8524 50.4493 H 0.0 **** 0.0
14123 H 63.4392 89.5602 52.3209 H 0.0 **** 0.0
14124 H 64.753 89.8577 51.1657 H 0.0 **** 0.0
14125 H 66.9829 89.482 52.3414 H 0.0 **** 0.0
14126 H 65.6846 89.8396 53.3748 H 0.0 **** 0.0
14127 H 66.6724 88.759 55.3176 H 0.0 **** 0.0
14128 H 67.9289 89.7525 54.6433 H 0.0 **** 0.0
14129 H 68.7814 87.4234 55.248 H 0.0 **** 0.0
14130 H 68.7859 87.644 53.4935 H 0.0 **** 0.0
14131 H 66.6626 86.2756 55.1791 H 0.0 **** 0.0
14132 H 69.0843 85.3429 53.4335 H 0.0 **** 0.0
14133 H 68.5415 84.8455 55.0124 H 0.0 **** 0.0
14134 H 64.5017 82.9673 51.95 H 0.0 **** 0.0
14135 H 65.588 80.8519 51.9343 H 0.0 **** 0.0
14136 H 56.134 93.785 46.0035 H 0.0 **** 0.0
14137 H 54.6889 94.5421 45.4877 H 0.0 **** 0.0
14138 H 55.4136 93.4775 43.0252 H 0.0 **** 0.0
14139 H 57.0301 93.7506 43.7592 H 0.0 **** 0.0
14140 H 55.9477 95.0298 43.6182 H 0.0 **** 0.0
14141 H 52.8369 93.9149 43.9715 H 0.0 **** 0.0
14142 H 52.3727 94.0826 45.7061 H 0.0 **** 0.0
14143 H 51.4258 93.1463 44.6149 H 0.0 **** 0.0
14144 H 57.6165 90.446 46.0811 H 0.0 **** 0.0
14145 H 57.2315 92.0538 46.6719 H 0.0 **** 0.0
14146 H 57.5416 91.7603 44.9036 H 0.0 **** 0.0
14147 H 50.9029 91.1395 45.9809 H 0.0 **** 0.0
14148 H 50.937 89.6145 45.2122 H 0.0 **** 0.0
14149 H 50.7718 91.0067 44.1724 H 0.0 **** 0.0
14150 H 52.2073 85.6087 42.5229 H 0.0 **** 0.0
14151 H 51.3854 86.5444 43.8109 H 0.0 **** 0.0
14152 H 51.664 84.878 44.1007 H 0.0 **** 0.0
14153 H 54.647 82.7255 43.4195 H 0.0 **** 0.0
14154 H 53.1464 83.5251 42.9668 H 0.0 **** 0.0
14155 H 53.2907 82.8583 44.667 H 0.0 **** 0.0
14156 H 56.3677 81.8119 45.8418 H 0.0 **** 0.0
14157 H 61.4741 80.6075 42.7358 H 0.0 **** 0.0
14158 H 60.2777 79.7017 43.6428 H 0.0 **** 0.0
14159 H 61.2359 80.7597 44.6025 H 0.0 **** 0.0
14160 H 61.6135 84.4687 42.1523 H 0.0 **** 0.0
14161 H 60.9128 83.0454 41.2541 H 0.0 **** 0.0
14162 H 62.238 82.8663 42.4593 H 0.0 **** 0.0
14163 H 62.0662 82.4751 47.3552 H 0.0 **** 0.0
14164 H 58.5258 87.792 48.7976 H 0.0 **** 0.0
14165 H 70.2287 83.333 53.3601 H 0.0 **** 0.0
14166 H 70.0735 81.5695 53.5776 H 0.0 **** 0.0
14167 H 69.6339 82.7454 54.9217 H 0.0 **** 0.0
14168 H 69.0941 80.5283 51.8604 H 0.0 **** 0.0
14169 H 67.6005 79.5605 51.7969 H 0.0 **** 0.0
14170 H 68.4611 79.8218 53.3345 H 0.0 **** 0.0
14171 C 92.5749 95.7587 26.9215 C 0.0 **** 0.0
14172 C 93.5947 95.6089 25.9832 C 0.0 **** 0.0
14173 C 94.7452 94.7857 26.2845 C 0.0 **** 0.0
14174 C 94.9526 94.3172 27.5903 C 0.0 **** 0.0
14175 C 93.9483 94.4941 28.5747 C 0.0 **** 0.0
14176 C 92.7428 95.2287 28.1997 C 0.0 **** 0.0
14177 C 96.2755 93.6418 27.9801 C 0.0 **** 0.0
14178 C 97.4111 93.4978 26.9508 C 0.0 **** 0.0
14179 C 97.1392 93.9178 25.6522 C 0.0 **** 0.0
14180 C 95.7481 94.4444 25.2073 C 0.0 **** 0.0
14181 C 98.2139 93.8394 24.706 C 0.0 **** 0.0
14182 C 99.4682 93.2188 25.0392 C 0.0 **** 0.0
14183 C 99.7941 93.0475 26.4091 C 0.0 **** 0.0
14184 C 98.7506 93.0957 27.3379 C 0.0 **** 0.0
14185 C 99.0582 92.7597 28.7013 C 0.0 **** 0.0
14186 C 100.376 92.6223 29.184 C 0.0 **** 0.0
14187 C 101.4 92.6729 28.2483 C 0.0 **** 0.0
14188 C 101.152 92.8745 26.8709 C 0.0 **** 0.0
14189 C 102.83 92.5918 28.7287 C 0.0 **** 0.0
14190 C 103.003 91.429 29.6985 C 0.0 **** 0.0
14191 C 101.929 91.5378 30.7978 C 0.0 **** 0.0
14192 C 100.721 92.2671 30.5128 C 0.0 **** 0.0
14193 C 104.514 91.2117 30.0225 C 0.0 **** 0.0
14194 C 105.064 92.5369 30.6469 C 0.0 **** 0.0
14195 C 104.866 93.7078 29.7537 C 0.0 **** 0.0
14196 C 103.365 93.8944 29.3527 C 0.0 **** 0.0
14197 C 99.7856 92.4961 31.5317 C 0.0 **** 0.0
14198 C 99.9086 91.8465 32.816 C 0.0 **** 0.0
14199 C 101.077 91.0611 33.1017 C 0.0 **** 0.0
14200 C 102.094 90.9591 32.0851 C 0.0 **** 0.0
14201 C 101.245 90.4268 34.4661 C 0.0 **** 0.0
14202 C 100.07 90.2622 35.3339 C 0.0 **** 0.0
14203 C 98.905 90.9857 35.0526 C 0.0 **** 0.0
14204 C 98.8168 91.875 33.8618 C 0.0 **** 0.0
14205 C 97.7272 90.8951 35.9671 C 0.0 **** 0.0
14206 C 98.2299 90.762 37.4095 C 0.0 **** 0.0
14207 C 99.1731 89.6098 37.5438 C 0.0 **** 0.0
14208 C 100.175 89.5066 36.5517 C 0.0 **** 0.0
14209 N 101.205 88.6589 36.7849 N 0.0 **** 0.0
14210 C 101.429 88.002 37.954 C 0.0 **** 0.0
14211 C 100.524 88.1566 39.0007 C 0.0 **** 0.0
14212 C 99.3837 88.9545 38.779 C 0.0 **** 0.0
14213 C 98.4302 89.2184 39.9141 C 0.0 **** 0.0
14214 C 98.6181 88.2236 41.0249 C 0.0 **** 0.0
14215 C 100.105 88.1152 41.4374 C 0.0 **** 0.0
14216 C 100.844 87.4637 40.3156 C 0.0 **** 0.0
14217 C 102.342 87.467 40.611 C 0.0 **** 0.0
14218 C 103.084 86.9119 39.3932 C 0.0 **** 0.0
14219 C 102.579 87.1653 38.0903 C 0.0 **** 0.0
14220 C 103.301 86.6685 36.9924 C 0.0 **** 0.0
14221 C 104.494 85.9208 37.1714 C 0.0 **** 0.0
14222 C 105.03 85.7496 38.4254 C 0.0 **** 0.0
14223 C 104.332 86.258 39.5599 C 0.0 **** 0.0
14224 C 91.5846 95.1289 29.1119 C 0.0 **** 0.0
14225 C 91.4957 96.3347 30.0951 C 0.0 **** 0.0
14226 C 91.2958 96.5761 26.5496 C 0.0 **** 0.0
14227 C 94.152 94.0387 30.0075 C 0.0 **** 0.0
14228 C 93.4279 96.1915 24.5898 C 0.0 **** 0.0
14229 C 97.8763 94.3088 23.2764 C 0.0 **** 0.0
14230 C 100.41 92.6569 23.9728 C 0.0 **** 0.0
14231 O 102.214 92.9512 25.9677 O 0.0 **** 0.0
14232 C 105.654 93.6287 28.4566 C 0.0 **** 0.0
14233 C 106.469 92.3602 31.1448 C 0.0 **** 0.0
14234 O 103.14 90.0603 32.2618 O 0.0 **** 0.0
14235 O 98.8277 93.5022 31.3406 O 0.0 **** 0.0
14236 O 97.8894 92.6731 33.7413 O 0.0 **** 0.0
14237 O 102.361 90.3017 34.9288 O 0.0 **** 0.0
14238 C 104.842 85.9905 40.9692 C 0.0 **** 0.0
14239 C 106.423 85.1507 38.5684 C 0.0 **** 0.0
14240 H 96.6536 94.2275 28.8052 H 0.0 **** 0.0
14241 H 96.0082 92.643 28.3062 H 0.0 **** 0.0
14242 H 95.3083 93.6956 24.5799 H 0.0 **** 0.0
14243 H 95.8929 95.3602 24.7018 H 0.0 **** 0.0
14244 H 98.1925 92.6343 29.3462 H 0.0 **** 0.0
14245 H 104.73 90.3549 30.623 H 0.0 **** 0.0
14246 H 105.013 91.0396 29.0427 H 0.0 **** 0.0
14247 H 104.443 92.7342 31.5668 H 0.0 **** 0.0
14248 H 105.21 94.6499 30.2887 H 0.0 **** 0.0
14249 H 103.282 94.7537 28.6422 H 0.0 **** 0.0
14250 H 102.829 94.2203 30.2837 H 0.0 **** 0.0
14251 H 97.0093 91.714 35.8115 H 0.0 **** 0.0
14252 H 97.21 90.0161 35.7528 H 0.0 **** 0.0
14253 H 97.3858 90.6527 38.1303 H 0.0 **** 0.0
14254 H 98.7408 91.7405 37.6488 H 0.0 **** 0.0
14255 H 98.6116 90.2636 40.2677 H 0.0 **** 0.0
14256 H 97.331 89.1137 39.5775 H 0.0 **** 0.0
14257 H 98.2579 87.2029 40.6283 H 0.0 **** 0.0
14258 H 98.0373 88.5429 41.9115 H 0.0 **** 0.0
14259 H 100.233 87.5462 42.3814 H 0.0 **** 0.0
14260 H 100.525 89.1637 41.6255 H 0.0 **** 0.0
14261 H 100.589 86.4288 40.2377 H 0.0 **** 0.0
14262 H 102.701 88.4751 40.8583 H 0.0 **** 0.0
14263 H 102.514 86.7831 41.5132 H 0.0 **** 0.0
14264 H 102.896 86.8564 35.9826 H 0.0 **** 0.0
14265 H 105.027 85.6013 36.2861 H 0.0 **** 0.0
14266 H 91.5241 94.163 29.6211 H 0.0 **** 0.0
14267 H 90.6044 95.1223 28.5838 H 0.0 **** 0.0
14268 H 90.8248 97.1144 29.6837 H 0.0 **** 0.0
14269 H 92.4686 96.8222 30.2594 H 0.0 **** 0.0
14270 H 91.1522 95.9559 31.087 H 0.0 **** 0.0
14271 H 91.6245 97.571 26.1972 H 0.0 **** 0.0
14272 H 90.637 96.8423 27.3492 H 0.0 **** 0.0
14273 H 90.6664 96.0297 25.7406 H 0.0 **** 0.0
14274 H 93.3418 93.3635 30.3591 H 0.0 **** 0.0
14275 H 94.0797 94.9249 30.6865 H 0.0 **** 0.0
14276 H 95.0871 93.4716 30.1568 H 0.0 **** 0.0
14277 H 92.7067 97.0504 24.4439 H 0.0 **** 0.0
14278 H 93.0847 95.3294 23.9489 H 0.0 **** 0.0
14279 H 94.3411 96.6786 24.1383 H 0.0 **** 0.0
14280 H 97.4593 95.3665 23.2283 H 0.0 **** 0.0
14281 H 97.0926 93.5577 22.7976 H 0.0 **** 0.0
14282 H 98.7503 94.4208 22.57 H 0.0 **** 0.0
14283 H 101.313 93.3281 23.7775 H 0.0 **** 0.0
14284 H 99.8805 92.5499 22.999 H 0.0 **** 0.0
14285 H 100.723 91.6401 24.2781 H 0.0 **** 0.0
14286 H 103.071 92.5075 26.2251 H 0.0 **** 0.0
14287 H 106.704 93.5634 28.6458 H 0.0 **** 0.0
14288 H 105.434 94.5062 27.832 H 0.0 **** 0.0
14289 H 105.322 92.8375 27.7771 H 0.0 **** 0.0
14290 H 106.473 91.683 32.0031 H 0.0 **** 0.0
14291 H 106.786 93.3437 31.5013 H 0.0 **** 0.0
14292 H 107.098 91.8748 30.3648 H 0.0 **** 0.0
14293 H 102.888 89.1945 32.661 H 0.0 **** 0.0
14294 H 97.8859 93.1794 31.4538 H 0.0 **** 0.0
14295 H 104.968 86.897 41.5681 H 0.0 **** 0.0
14296 H 105.784 85.4796 40.9812 H 0.0 **** 0.0
14297 H 104.093 85.298 41.4507 H 0.0 **** 0.0
14298 H 107.089 85.7979 39.125 H 0.0 **** 0.0
14299 H 106.873 84.9302 37.619 H 0.0 **** 0.0
14300 H 106.326 84.1623 39.1443 H 0.0 **** 0.0
14301 C 26.357 88.4673 84.5994 C 0.0 **** 0.0
14302 C 26.638 88.5623 85.9932 C 0.0 **** 0.0
14303 C 27.3964 87.5486 86.5964 C 0.0 **** 0.0
14304 C 27.8384 86.4414 85.8712 C 0.0 **** 0.0
14305 C 27.5967 86.3411 84.4726 C 0.0 **** 0.0
14306 C 26.8521 87.3857 83.8019 C 0.0 **** 0.0
14307 C 28.5002 85.3348 86.5673 C 0.0 **** 0.0
14308 C 28.4453 85.3201 88.0925 C 0.0 **** 0.0
14309 C 28.0067 86.4525 88.7974 C 0.0 **** 0.0
14310 C 27.5451 87.6629 88.0703 C 0.0 **** 0.0
14311 C 27.9795 86.4556 90.2192 C 0.0 **** 0.0
14312 C 28.4344 85.3469 90.9288 C 0.0 **** 0.0
14313 C 28.8539 84.2032 90.1741 C 0.0 **** 0.0
14314 C 28.8484 84.1896 88.802 C 0.0 **** 0.0
14315 C 29.1939 83.0162 88.1359 C 0.0 **** 0.0
14316 C 29.3715 81.7998 88.7749 C 0.0 **** 0.0
14317 C 29.444 81.8481 90.2104 C 0.0 **** 0.0
14318 C 29.3954 83.097 90.8783 C 0.0 **** 0.0
14319 C 29.6991 80.5801 91.045 C 0.0 **** 0.0
14320 C 29.5395 79.3281 90.2783 C 0.0 **** 0.0
14321 C 29.9384 79.4386 88.8413 C 0.0 **** 0.0
14322 C 29.5727 80.562 88.0756 C 0.0 **** 0.0
14323 C 28.0928 78.7261 90.3473 C 0.0 **** 0.0
14324 C 27.0481 79.8025 90.7004 C 0.0 **** 0.0
14325 C 27.2773 80.5215 91.9749 C 0.0 **** 0.0
14326 C 28.7874 80.5253 92.3318 C 0.0 **** 0.0
14327 C 29.5945 80.4435 86.6303 C 0.0 **** 0.0
14328 C 30.2582 79.3314 86.006 C 0.0 **** 0.0
14329 C 30.7213 78.285 86.8173 C 0.0 **** 0.0
14330 C 30.526 78.3364 88.2134 C 0.0 **** 0.0
14331 C 31.1047 76.9938 86.1958 C 0.0 **** 0.0
14332 C 30.6949 76.6954 84.816 C 0.0 **** 0.0
14333 C 30.5286 77.782 83.9575 C 0.0 **** 0.0
14334 C 30.3989 79.1476 84.5192 C 0.0 **** 0.0
14335 C 30.4113 77.5049 82.489 C 0.0 **** 0.0
14336 C 29.5002 76.3097 82.2196 C 0.0 **** 0.0
14337 C 29.9212 75.1197 83.0634 C 0.0 **** 0.0
14338 C 30.3278 75.399 84.3827 C 0.0 **** 0.0
14339 N 30.5314 74.3249 85.2426 N 0.0 **** 0.0
14340 C 30.2633 73.0299 84.9291 C 0.0 **** 0.0
14341 C 29.782 72.7053 83.6488 C 0.0 **** 0.0
14342 C 29.6767 73.7664 82.6716 C 0.0 **** 0.0
14343 C 29.2167 73.418 81.257 C 0.0 **** 0.0
14344 C 29.1682 71.897 80.9146 C 0.0 **** 0.0
14345 C 28.6134 71.087 82.0733 C 0.0 **** 0.0
14346 C 29.5374 71.26 83.2932 C 0.0 **** 0.0
14347 C 28.978 70.5212 84.5233 C 0.0 **** 0.0
14348 C 29.799 70.8177 85.7513 C 0.0 **** 0.0
14349 C 30.3866 72.0637 85.9103 C 0.0 **** 0.0
14350 C 31.0355 72.3878 87.1376 C 0.0 **** 0.0
14351 C 31.1786 71.4155 88.0997 C 0.0 **** 0.0
14352 C 30.6667 70.143 87.9547 C 0.0 **** 0.0
14353 C 29.8728 69.8439 86.8303 C 0.0 **** 0.0
14354 C 26.6349 87.3019 82.276 C 0.0 **** 0.0
14355 C 25.4483 86.3856 81.9813 C 0.0 **** 0.0
14356 C 25.4938 89.4814 83.9704 C 0.0 **** 0.0
14357 C 28.1596 85.1449 83.6701 C 0.0 **** 0.0
14358 C 26.188 89.83 86.7526 C 0.0 **** 0.0
14359 C 27.5569 87.7082 91.012 C 0.0 **** 0.0
14360 C 28.17 85.296 92.4659 C 0.0 **** 0.0
14361 O 30.0766 83.321 92.0812 O 0.0 **** 0.0
14362 C 26.3919 79.9734 93.1512 C 0.0 **** 0.0
14363 C 25.5888 79.2228 90.5184 C 0.0 **** 0.0
14364 O 31.0292 77.2415 89.0052 O 0.0 **** 0.0
14365 O 28.8907 81.3943 85.8325 O 0.0 **** 0.0
14366 O 30.3567 80.1089 83.77 O 0.0 **** 0.0
14367 O 31.7535 76.1673 86.8236 O 0.0 **** 0.0
14368 C 29.1596 68.5366 86.7243 C 0.0 **** 0.0
14369 C 30.8475 69.1619 89.0918 C 0.0 **** 0.0
14370 H 27.8776 84.4888 86.2735 H 0.0 **** 0.0
14371 H 29.5586 85.1995 86.1968 H 0.0 **** 0.0
14372 H 28.2708 88.4241 88.3443 H 0.0 **** 0.0
14373 H 26.5589 87.9113 88.557 H 0.0 **** 0.0
14374 H 29.5299 83.1329 87.0761 H 0.0 **** 0.0
14375 H 27.7212 78.2597 89.3425 H 0.0 **** 0.0
14376 H 28.1068 77.9384 91.0613 H 0.0 **** 0.0
14377 H 27.1377 80.5752 89.9173 H 0.0 **** 0.0
14378 H 26.9978 81.5719 91.9235 H 0.0 **** 0.0
14379 H 29.053 79.5745 92.9345 H 0.0 **** 0.0
14380 H 28.9956 81.3607 93.0453 H 0.0 **** 0.0
14381 H 29.9617 78.3673 81.9256 H 0.0 **** 0.0
14382 H 31.4461 77.3493 82.0895 H 0.0 **** 0.0
14383 H 29.5556 76.1147 81.1491 H 0.0 **** 0.0
14384 H 28.4666 76.6065 82.437 H 0.0 **** 0.0
14385 H 28.1551 73.8217 81.0952 H 0.0 **** 0.0
14386 H 29.8817 73.8581 80.5303 H 0.0 **** 0.0
14387 H 30.1935 71.5292 80.6264 H 0.0 **** 0.0
14388 H 28.5389 71.771 79.9976 H 0.0 **** 0.0
14389 H 28.5783 69.9971 81.7672 H 0.0 **** 0.0
14390 H 27.5788 71.4095 82.3172 H 0.0 **** 0.0
14391 H 30.5368 70.8469 83.0755 H 0.0 **** 0.0
14392 H 27.9168 70.7899 84.743 H 0.0 **** 0.0
14393 H 29.0938 69.4435 84.2788 H 0.0 **** 0.0
14394 H 31.4167 73.3777 87.3902 H 0.0 **** 0.0
14395 H 31.7269 71.7472 88.9848 H 0.0 **** 0.0
14396 H 27.5158 86.8575 81.7605 H 0.0 **** 0.0
14397 H 26.4532 88.3003 81.8121 H 0.0 **** 0.0
14398 H 24.5315 86.6408 82.5641 H 0.0 **** 0.0
14399 H 25.6628 85.3402 82.0785 H 0.0 **** 0.0
14400 H 25.2053 86.5284 80.9105 H 0.0 **** 0.0
14401 H 24.7908 90.0405 84.6684 H 0.0 **** 0.0
14402 H 24.7419 89.051 83.2961 H 0.0 **** 0.0
14403 H 26.0563 90.2676 83.4373 H 0.0 **** 0.0
14404 H 27.373 84.6261 83.1417 H 0.0 **** 0.0
14405 H 28.7322 84.3997 84.2668 H 0.0 **** 0.0
14406 H 28.9346 85.5124 82.9611 H 0.0 **** 0.0
14407 H 26.4834 89.8424 87.8371 H 0.0 **** 0.0
14408 H 25.092 89.9415 86.7465 H 0.0 **** 0.0
14409 H 26.6402 90.7492 86.3018 H 0.0 **** 0.0
14410 H 28.2189 87.859 91.8721 H 0.0 **** 0.0
14411 H 26.5048 87.556 91.3405 H 0.0 **** 0.0
14412 H 27.6659 88.6585 90.4247 H 0.0 **** 0.0
14413 H 27.9042 84.2679 92.7168 H 0.0 **** 0.0
14414 H 27.3758 85.9784 92.7885 H 0.0 **** 0.0
14415 H 29.1095 85.5743 92.9594 H 0.0 **** 0.0
14416 H 30.7422 82.6068 92.3466 H 0.0 **** 0.0
14417 H 25.3468 80.3175 93.0764 H 0.0 **** 0.0
14418 H 26.7246 80.4028 94.1338 H 0.0 **** 0.0
14419 H 26.3892 78.8692 93.2275 H 0.0 **** 0.0
14420 H 25.4457 78.8826 89.486 H 0.0 **** 0.0
14421 H 24.7988 79.9681 90.764 H 0.0 **** 0.0
14422 H 25.4828 78.3076 91.1135 H 0.0 **** 0.0
14423 H 30.869 77.3146 89.9831 H 0.0 **** 0.0
14424 H 28.4698 80.924 85.0673 H 0.0 **** 0.0
14425 H 28.112 68.7063 86.4842 H 0.0 **** 0.0
14426 H 29.1247 67.9286 87.6339 H 0.0 **** 0.0
14427 H 29.5942 67.9248 85.9247 H 0.0 **** 0.0
14428 H 29.8444 68.9665 89.5954 H 0.0 **** 0.0
14429 H 31.5313 69.5298 89.912 H 0.0 **** 0.0
14430 H 31.3075 68.2262 88.7336 H 0.0 **** 0.0
14431 C 82.2132 78.9493 11.4672 C 0.0 **** 0.0
14432 C 81.6697 77.8135 12.0496 C 0.0 **** 0.0
14433 C 80.7195 77.0345 11.3701 C 0.0 **** 0.0
14434 C 80.4926 77.2617 10.0055 C 0.0 **** 0.0
14435 C 81.3053 78.181 9.30049 C 0.0 **** 0.0
14436 C 82.1114 79.0833 10.0382 C 0.0 **** 0.0
14437 C 79.2677 76.6631 9.34242 C 0.0 **** 0.0
14438 C 78.1629 76.2506 10.2864 C 0.0 **** 0.0
14439 C 78.5119 75.9173 11.6501 C 0.0 **** 0.0
14440 C 79.9919 75.9121 12.0652 C 0.0 **** 0.0
14441 C 77.5399 75.5378 12.5841 C 0.0 **** 0.0
14442 C 76.1904 75.4313 12.1841 C 0.0 **** 0.0
14443 C 75.7777 75.8965 10.871 C 0.0 **** 0.0
14444 C 76.763 76.2379 9.92684 C 0.0 **** 0.0
14445 C 76.3438 76.3983 8.58876 C 0.0 **** 0.0
14446 C 75.0268 76.2736 8.19845 C 0.0 **** 0.0
14447 C 74.0256 76.3288 9.22172 C 0.0 **** 0.0
14448 C 74.4234 76.0239 10.5457 C 0.0 **** 0.0
14449 C 72.5193 76.4572 8.86282 C 0.0 **** 0.0
14450 C 72.3017 76.7365 7.38248 C 0.0 **** 0.0
14451 C 73.3059 76.1252 6.47514 C 0.0 **** 0.0
14452 C 74.655 75.9842 6.85209 C 0.0 **** 0.0
14453 C 72.1261 78.2185 7.10542 C 0.0 **** 0.0
14454 C 70.8256 78.7904 7.80629 C 0.0 **** 0.0
14455 C 70.3751 77.935 8.95291 C 0.0 **** 0.0
14456 C 71.6082 77.3936 9.74769 C 0.0 **** 0.0
14457 C 75.5822 75.3996 5.93426 C 0.0 **** 0.0
14458 C 75.201 75.2103 4.56398 C 0.0 **** 0.0
14459 C 73.8568 75.2556 4.23527 C 0.0 **** 0.0
14460 C 72.9294 75.7128 5.16327 C 0.0 **** 0.0
14461 C 73.3658 74.6317 2.97792 C 0.0 **** 0.0
14462 C 74.2864 74.3428 1.86093 C 0.0 **** 0.0
14463 C 75.6624 74.5373 2.09668 C 0.0 **** 0.0
14464 C 76.1676 74.9346 3.46283 C 0.0 **** 0.0
14465 C 76.591 74.402 0.941142 C 0.0 **** 0.0
14466 C 76.2506 73.0896 0.193484 C 0.0 **** 0.0
14467 C 74.7439 72.9912 -0.150258 C 0.0 **** 0.0
14468 C 73.8311 73.7067 0.648063 C 0.0 **** 0.0
14469 N 72.4824 73.5865 0.337557 N 0.0 **** 0.0
14470 C 71.9678 72.8346 -0.669176 C 0.0 **** 0.0
14471 C 72.8734 72.0063 -1.40724 C 0.0 **** 0.0
14472 C 74.2713 72.0913 -1.12668 C 0.0 **** 0.0
14473 C 75.262 71.2584 -1.9478 C 0.0 **** 0.0
14474 C 74.5978 70.1219 -2.7332 C 0.0 **** 0.0
14475 C 73.3534 70.5879 -3.49464 C 0.0 **** 0.0
14476 C 72.2723 71.0348 -2.45166 C 0.0 **** 0.0
14477 C 71.1035 71.7726 -3.16863 C 0.0 **** 0.0
14478 C 70.0719 72.1378 -2.12201 C 0.0 **** 0.0
14479 C 70.5621 72.7458 -0.924714 C 0.0 **** 0.0
14480 C 69.6203 73.1847 0.0265774 C 0.0 **** 0.0
14481 C 68.266 72.7609 -0.0384187 C 0.0 **** 0.0
14482 C 67.8079 72.0497 -1.17733 C 0.0 **** 0.0
14483 C 68.6864 71.8778 -2.27044 C 0.0 **** 0.0
14484 C 83.0225 80.0955 9.28301 C 0.0 **** 0.0
14485 C 82.2897 81.4016 8.99358 C 0.0 **** 0.0
14486 C 83.0325 79.977 12.2905 C 0.0 **** 0.0
14487 C 81.3149 78.144 7.79817 C 0.0 **** 0.0
14488 C 82.1863 77.3995 13.4001 C 0.0 **** 0.0
14489 C 77.8501 75.5704 14.0483 C 0.0 **** 0.0
14490 C 75.2988 74.486 12.9663 C 0.0 **** 0.0
14491 O 73.4786 75.9054 11.4881 O 0.0 **** 0.0
14492 C 69.4598 76.8062 8.5151 C 0.0 **** 0.0
14493 C 69.7267 79.1414 6.78115 C 0.0 **** 0.0
14494 O 71.6527 75.8855 4.65513 O 0.0 **** 0.0
14495 O 76.805 74.8409 6.38764 O 0.0 **** 0.0
14496 O 77.3481 75.2788 3.60416 O 0.0 **** 0.0
14497 O 72.1828 74.3003 2.86104 O 0.0 **** 0.0
14498 C 68.1869 71.3618 -3.62572 C 0.0 **** 0.0
14499 C 66.5511 71.2134 -1.08088 C 0.0 **** 0.0
14500 H 78.8174 77.4648 8.73821 H 0.0 **** 0.0
14501 H 79.5945 75.8132 8.76396 H 0.0 **** 0.0
14502 H 80.4022 74.9622 11.711 H 0.0 **** 0.0
14503 H 80.1646 75.8694 13.1616 H 0.0 **** 0.0
14504 H 77.1207 76.6605 7.89504 H 0.0 **** 0.0
14505 H 72.9878 78.6928 7.56195 H 0.0 **** 0.0
14506 H 72.2312 78.4447 6.01335 H 0.0 **** 0.0
14507 H 71.1031 79.7917 8.16939 H 0.0 **** 0.0
14508 H 69.7837 78.5514 9.661 H 0.0 **** 0.0
14509 H 71.2328 76.9113 10.6773 H 0.0 **** 0.0
14510 H 72.1605 78.2751 10.1061 H 0.0 **** 0.0
14511 H 76.4616 75.2914 0.272782 H 0.0 **** 0.0
14512 H 77.637 74.4121 1.29122 H 0.0 **** 0.0
14513 H 76.4763 72.2236 0.877804 H 0.0 **** 0.0
14514 H 76.8394 73.1265 -0.720477 H 0.0 **** 0.0
14515 H 75.7638 71.9691 -2.65555 H 0.0 **** 0.0
14516 H 76.0085 70.7938 -1.35949 H 0.0 **** 0.0
14517 H 74.2692 69.3793 -1.97643 H 0.0 **** 0.0
14518 H 75.2687 69.6446 -3.45764 H 0.0 **** 0.0
14519 H 72.9386 69.8259 -4.13113 H 0.0 **** 0.0
14520 H 73.6732 71.4539 -4.14301 H 0.0 **** 0.0
14521 H 71.9189 70.149 -1.9359 H 0.0 **** 0.0
14522 H 71.4583 72.7085 -3.69354 H 0.0 **** 0.0
14523 H 70.7716 71.085 -3.97519 H 0.0 **** 0.0
14524 H 69.9779 73.6225 0.960853 H 0.0 **** 0.0
14525 H 67.5469 73.0378 0.763936 H 0.0 **** 0.0
14526 H 83.5436 79.7475 8.40452 H 0.0 **** 0.0
14527 H 83.9093 80.2054 9.89752 H 0.0 **** 0.0
14528 H 81.8569 81.804 9.94371 H 0.0 **** 0.0
14529 H 81.4157 81.2468 8.334 H 0.0 **** 0.0
14530 H 83.0854 82.1027 8.61716 H 0.0 **** 0.0
14531 H 82.8538 81.0069 11.9199 H 0.0 **** 0.0
14532 H 84.1209 79.7235 12.2356 H 0.0 **** 0.0
14533 H 82.6616 80.0093 13.3337 H 0.0 **** 0.0
14534 H 80.8419 77.225 7.40767 H 0.0 **** 0.0
14535 H 82.3159 78.1881 7.35242 H 0.0 **** 0.0
14536 H 80.7822 79.0344 7.40544 H 0.0 **** 0.0
14537 H 82.4395 76.316 13.344 H 0.0 **** 0.0
14538 H 81.405 77.5386 14.16 H 0.0 **** 0.0
14539 H 83.1815 77.7767 13.6654 H 0.0 **** 0.0
14540 H 78.4625 76.4555 14.2726 H 0.0 **** 0.0
14541 H 78.4787 74.7139 14.3672 H 0.0 **** 0.0
14542 H 76.9341 75.6594 14.6427 H 0.0 **** 0.0
14543 H 74.615 73.8083 12.4018 H 0.0 **** 0.0
14544 H 74.6706 74.9896 13.6873 H 0.0 **** 0.0
14545 H 75.9112 73.7609 13.5135 H 0.0 **** 0.0
14546 H 72.8023 75.1951 11.2716 H 0.0 **** 0.0
14547 H 68.4312 77.1896 8.20834 H 0.0 **** 0.0
14548 H 69.3245 75.9916 9.27763 H 0.0 **** 0.0
14549 H 69.7899 76.2085 7.60359 H 0.0 **** 0.0
14550 H 70.1397 79.8178 6.01758 H 0.0 **** 0.0
14551 H 68.9428 79.671 7.36228 H 0.0 **** 0.0
14552 H 69.3139 78.2642 6.27632 H 0.0 **** 0.0
14553 H 70.9759 76.3488 5.26512 H 0.0 **** 0.0
14554 H 77.2277 74.1167 5.81359 H 0.0 **** 0.0
14555 H 68.6657 71.7503 -4.52858 H 0.0 **** 0.0
14556 H 67.116 71.5963 -3.75825 H 0.0 **** 0.0
14557 H 68.2786 70.2555 -3.63822 H 0.0 **** 0.0
14558 H 65.7058 71.8755 -1.16833 H 0.0 **** 0.0
14559 H 66.4331 70.8873 -0.0074557 H 0.0 **** 0.0
14560 H 66.5114 70.3264 -1.82074 H 0.0 **** 0.0
14561 C 90.1686 106.111 113.46 C 0.0 **** 0.0
14562 C 90.2329 104.8 114.01 C 0.0 **** 0.0
14563 C 89.6682 103.676 113.347 C 0.0 **** 0.0
14564 C 88.9572 103.834 112.135 C 0.0 **** 0.0
14565 C 88.8709 105.166 111.583 C 0.0 **** 0.0
14566 C 89.4899 106.285 112.252 C 0.0 **** 0.0
14567 C 88.4102 102.67 111.368 C 0.0 **** 0.0
14568 C 88.7504 101.252 111.878 C 0.0 **** 0.0
14569 C 89.415 101.066 113.098 C 0.0 **** 0.0
14570 C 89.8488 102.289 113.9 C 0.0 **** 0.0
14571 C 89.6056 99.7847 113.622 C 0.0 **** 0.0
14572 C 89.2555 98.6517 112.851 C 0.0 **** 0.0
14573 C 88.4277 98.8355 111.725 C 0.0 **** 0.0
14574 C 88.2631 100.127 111.155 C 0.0 **** 0.0
14575 C 87.7051 100.179 109.864 C 0.0 **** 0.0
14576 C 87.1206 99.0572 109.231 C 0.0 **** 0.0
14577 C 87.0001 97.8694 109.97 C 0.0 **** 0.0
14578 C 87.7045 97.7443 111.175 C 0.0 **** 0.0
14579 C 86.1087 96.7818 109.469 C 0.0 **** 0.0
14580 C 86.5046 96.4971 108.016 C 0.0 **** 0.0
14581 C 86.7872 97.7579 107.186 C 0.0 **** 0.0
14582 C 86.8339 99.0238 107.853 C 0.0 **** 0.0
14583 C 85.6404 95.3917 107.442 C 0.0 **** 0.0
14584 C 84.1479 95.7667 107.552 C 0.0 **** 0.0
14585 C 83.7563 96.0504 108.966 C 0.0 **** 0.0
14586 C 84.6273 97.1699 109.573 C 0.0 **** 0.0
14587 C 86.5252 100.183 107.092 C 0.0 **** 0.0
14588 C 86.6801 100.143 105.645 C 0.0 **** 0.0
14589 C 86.9289 98.8881 105.026 C 0.0 **** 0.0
14590 C 86.9471 97.7013 105.783 C 0.0 **** 0.0
14591 C 87.1911 98.802 103.564 C 0.0 **** 0.0
14592 C 86.8034 99.9035 102.682 C 0.0 **** 0.0
14593 C 86.4592 101.156 103.249 C 0.0 **** 0.0
14594 C 86.5318 101.327 104.757 C 0.0 **** 0.0
14595 C 85.9249 102.34 102.449 C 0.0 **** 0.0
14596 C 86.2344 102.23 100.983 C 0.0 **** 0.0
14597 C 86.2872 100.78 100.421 C 0.0 **** 0.0
14598 C 86.5832 99.6871 101.307 C 0.0 **** 0.0
14599 N 86.5376 98.4259 100.842 N 0.0 **** 0.0
14600 C 86.3382 98.087 99.5491 C 0.0 **** 0.0
14601 C 86.2571 99.1183 98.6236 C 0.0 **** 0.0
14602 C 86.1578 100.482 99.0602 C 0.0 **** 0.0
14603 C 85.7621 101.609 98.062 C 0.0 **** 0.0
14604 C 85.9056 101.255 96.5992 C 0.0 **** 0.0
14605 C 85.4596 99.8151 96.3376 C 0.0 **** 0.0
14606 C 86.3114 98.7929 97.1753 C 0.0 **** 0.0
14607 C 85.8412 97.3394 96.8232 C 0.0 **** 0.0
14608 C 85.748 96.3589 97.9662 C 0.0 **** 0.0
14609 C 85.9663 96.778 99.2809 C 0.0 **** 0.0
14610 C 85.7361 95.8861 100.349 C 0.0 **** 0.0
14611 C 85.1651 94.6345 100.1 C 0.0 **** 0.0
14612 C 84.877 94.2104 98.8347 C 0.0 **** 0.0
14613 C 85.212 95.0566 97.7348 C 0.0 **** 0.0
14614 C 89.732 107.608 111.505 C 0.0 **** 0.0
14615 C 88.6486 108.662 111.821 C 0.0 **** 0.0
14616 C 90.7375 107.3 114.257 C 0.0 **** 0.0
14617 C 88.2497 105.441 110.237 C 0.0 **** 0.0
14618 C 90.8898 104.662 115.343 C 0.0 **** 0.0
14619 C 90.3736 99.559 114.934 C 0.0 **** 0.0
14620 C 89.9113 97.2777 113.195 C 0.0 **** 0.0
14621 O 87.5871 96.589 111.914 O 0.0 **** 0.0
14622 C 83.5959 94.7488 109.835 C 0.0 **** 0.0
14623 C 83.302 94.667 106.884 C 0.0 **** 0.0
14624 O 87.2258 96.4627 105.154 O 0.0 **** 0.0
14625 O 86.0802 101.293 107.771 O 0.0 **** 0.0
14626 O 86.5414 102.426 105.278 O 0.0 **** 0.0
14627 O 87.8773 97.8819 103.133 O 0.0 **** 0.0
14628 C 84.9187 94.5101 96.3556 C 0.0 **** 0.0
14629 C 84.1916 92.9107 98.6102 C 0.0 **** 0.0
14630 H 87.3125 102.736 111.256 H 0.0 **** 0.0
14631 H 88.8304 102.721 110.344 H 0.0 **** 0.0
14632 H 90.9288 102.166 114.114 H 0.0 **** 0.0
14633 H 89.2732 102.307 114.854 H 0.0 **** 0.0
14634 H 87.7531 101.132 109.347 H 0.0 **** 0.0
14635 H 86.0025 95.0667 106.447 H 0.0 **** 0.0
14636 H 85.8519 94.4874 108.039 H 0.0 **** 0.0
14637 H 83.9462 96.6865 106.934 H 0.0 **** 0.0
14638 H 82.7675 96.5455 108.907 H 0.0 **** 0.0
14639 H 84.3425 97.3001 110.591 H 0.0 **** 0.0
14640 H 84.4923 98.1087 109.005 H 0.0 **** 0.0
14641 H 84.8227 102.38 102.652 H 0.0 **** 0.0
14642 H 86.3775 103.229 102.762 H 0.0 **** 0.0
14643 H 87.2205 102.73 100.783 H 0.0 **** 0.0
14644 H 85.4399 102.832 100.426 H 0.0 **** 0.0
14645 H 84.7774 101.925 98.3313 H 0.0 **** 0.0
14646 H 86.402 102.479 98.2426 H 0.0 **** 0.0
14647 H 86.9507 101.323 96.3283 H 0.0 **** 0.0
14648 H 85.3814 102.013 95.9679 H 0.0 **** 0.0
14649 H 85.6155 99.6459 95.2509 H 0.0 **** 0.0
14650 H 84.3799 99.6928 96.4771 H 0.0 **** 0.0
14651 H 87.3628 98.9039 96.8286 H 0.0 **** 0.0
14652 H 84.8655 97.3457 96.3074 H 0.0 **** 0.0
14653 H 86.5861 96.8787 96.0996 H 0.0 **** 0.0
14654 H 85.9041 96.1572 101.388 H 0.0 **** 0.0
14655 H 84.9455 94.0583 100.955 H 0.0 **** 0.0
14656 H 89.7812 107.434 110.382 H 0.0 **** 0.0
14657 H 90.7316 108.035 111.742 H 0.0 **** 0.0
14658 H 88.5395 108.764 112.918 H 0.0 **** 0.0
14659 H 87.6431 108.422 111.418 H 0.0 **** 0.0
14660 H 88.9221 109.626 111.35 H 0.0 **** 0.0
14661 H 90.2102 107.413 115.218 H 0.0 **** 0.0
14662 H 90.5638 108.287 113.824 H 0.0 **** 0.0
14663 H 91.8068 107.177 114.402 H 0.0 **** 0.0
14664 H 87.6154 106.355 110.278 H 0.0 **** 0.0
14665 H 87.581 104.624 109.889 H 0.0 **** 0.0
14666 H 88.9946 105.66 109.458 H 0.0 **** 0.0
14667 H 91.9485 104.937 115.33 H 0.0 **** 0.0
14668 H 90.8693 103.658 115.755 H 0.0 **** 0.0
14669 H 90.3447 105.32 116.085 H 0.0 **** 0.0
14670 H 91.4523 99.4832 114.701 H 0.0 **** 0.0
14671 H 90.2032 98.5944 115.388 H 0.0 **** 0.0
14672 H 90.0931 100.293 115.684 H 0.0 **** 0.0
14673 H 89.3527 96.715 114.007 H 0.0 **** 0.0
14674 H 90.9397 97.4154 113.504 H 0.0 **** 0.0
14675 H 90.0188 96.6297 112.343 H 0.0 **** 0.0
14676 H 86.9312 95.9022 111.7 H 0.0 **** 0.0
14677 H 82.5985 94.2729 109.576 H 0.0 **** 0.0
14678 H 83.5363 94.9633 110.941 H 0.0 **** 0.0
14679 H 84.3269 93.9649 109.694 H 0.0 **** 0.0
14680 H 83.4963 94.7003 105.759 H 0.0 **** 0.0
14681 H 82.2365 94.8956 106.925 H 0.0 **** 0.0
14682 H 83.5421 93.6281 107.254 H 0.0 **** 0.0
14683 H 86.7394 96.2282 104.25 H 0.0 **** 0.0
14684 H 85.3628 101.751 107.224 H 0.0 **** 0.0
14685 H 83.8682 94.7413 96.0365 H 0.0 **** 0.0
14686 H 85.158 93.4531 96.34 H 0.0 **** 0.0
14687 H 85.6171 94.8973 95.6148 H 0.0 **** 0.0
14688 H 83.9406 92.4318 99.5681 H 0.0 **** 0.0
14689 H 84.8599 92.2279 98.0099 H 0.0 **** 0.0
14690 H 83.2202 93.1066 98.0803 H 0.0 **** 0.0
14691 C 13.99 58.6932 93.2342 C 0.0 **** 0.0
14692 C 15.0903 58.9173 92.3893 C 0.0 **** 0.0
14693 C 15.152 58.1778 91.1568 C 0.0 **** 0.0
14694 C 14.054 57.3766 90.7118 C 0.0 **** 0.0
14695 C 12.8342 57.4256 91.4628 C 0.0 **** 0.0
14696 C 12.8325 57.9991 92.7733 C 0.0 **** 0.0
14697 C 14.1206 56.5532 89.438 C 0.0 **** 0.0
14698 C 15.4493 56.5387 88.6774 C 0.0 **** 0.0
14699 C 16.4965 57.4173 89.0874 C 0.0 **** 0.0
14700 C 16.3485 58.3238 90.2982 C 0.0 **** 0.0
14701 C 17.7606 57.3203 88.4277 C 0.0 **** 0.0
14702 C 17.987 56.3277 87.415 C 0.0 **** 0.0
14703 C 16.9042 55.4783 86.9847 C 0.0 **** 0.0
14704 C 15.6631 55.6231 87.6123 C 0.0 **** 0.0
14705 C 14.6214 54.8332 87.1198 C 0.0 **** 0.0
14706 C 14.7755 53.9122 86.0719 C 0.0 **** 0.0
14707 C 16.0282 53.7787 85.4254 C 0.0 **** 0.0
14708 C 17.0464 54.6591 85.8158 C 0.0 **** 0.0
14709 C 16.2029 52.8403 84.244 C 0.0 **** 0.0
14710 C 14.9218 52.4102 83.4906 C 0.0 **** 0.0
14711 C 13.6664 52.9072 84.1192 C 0.0 **** 0.0
14712 C 13.6402 53.2431 85.4875 C 0.0 **** 0.0
14713 C 14.8203 50.8543 83.2978 C 0.0 **** 0.0
14714 C 15.2293 50.079 84.5567 C 0.0 **** 0.0
14715 C 16.6197 50.3587 84.9486 C 0.0 **** 0.0
14716 C 17.2128 51.7211 84.4515 C 0.0 **** 0.0
14717 C 12.3826 53.2789 86.0888 C 0.0 **** 0.0
14718 C 11.2447 53.639 85.3139 C 0.0 **** 0.0
14719 C 11.3441 53.5536 83.8889 C 0.0 **** 0.0
14720 C 12.5221 53.0292 83.3216 C 0.0 **** 0.0
14721 C 10.1667 54.0046 83.0766 C 0.0 **** 0.0
14722 C 8.84185 54.0119 83.7248 C 0.0 **** 0.0
14723 C 8.75542 54.256 85.1221 C 0.0 **** 0.0
14724 C 10.0278 54.3265 85.8605 C 0.0 **** 0.0
14725 C 7.43135 54.6462 85.6756 C 0.0 **** 0.0
14726 C 6.35269 53.7 85.1584 C 0.0 **** 0.0
14727 C 6.41714 53.5599 83.6402 C 0.0 **** 0.0
14728 C 7.69782 53.6463 83.014 C 0.0 **** 0.0
14729 N 7.8503 53.2258 81.7364 N 0.0 **** 0.0
14730 C 6.8187 52.9197 80.9132 C 0.0 **** 0.0
14731 C 5.51118 52.9935 81.4033 C 0.0 **** 0.0
14732 C 5.30808 53.2644 82.8072 C 0.0 **** 0.0
14733 C 3.90869 53.0146 83.4027 C 0.0 **** 0.0
14734 C 2.76907 52.7781 82.4118 C 0.0 **** 0.0
14735 C 3.20691 52.0879 81.1575 C 0.0 **** 0.0
14736 C 4.3296 52.9428 80.4863 C 0.0 **** 0.0
14737 C 4.60898 52.4564 79.0159 C 0.0 **** 0.0
14738 C 6.08525 52.4469 78.5725 C 0.0 **** 0.0
14739 C 7.12032 52.6138 79.5761 C 0.0 **** 0.0
14740 C 8.47509 52.3697 79.1986 C 0.0 **** 0.0
14741 C 8.79954 51.987 77.9149 C 0.0 **** 0.0
14742 C 7.82498 52.0222 76.8727 C 0.0 **** 0.0
14743 C 6.43642 52.2441 77.1862 C 0.0 **** 0.0
14744 C 11.5239 58.1989 93.5949 C 0.0 **** 0.0
14745 C 11.1361 57.0127 94.5077 C 0.0 **** 0.0
14746 C 14.1287 59.1241 94.7297 C 0.0 **** 0.0
14747 C 11.5938 56.686 90.9891 C 0.0 **** 0.0
14748 C 16.2069 59.8337 92.8645 C 0.0 **** 0.0
14749 C 18.9135 58.1824 88.9315 C 0.0 **** 0.0
14750 C 19.4082 56.194 86.812 C 0.0 **** 0.0
14751 O 18.0581 54.8533 84.911 O 0.0 **** 0.0
14752 C 17.6336 49.2539 84.7432 C 0.0 **** 0.0
14753 C 14.8268 48.5742 84.469 C 0.0 **** 0.0
14754 O 12.5888 52.6107 81.9757 O 0.0 **** 0.0
14755 O 12.3347 52.9663 87.4158 O 0.0 **** 0.0
14756 O 10.0626 54.9549 86.913 O 0.0 **** 0.0
14757 O 10.3209 54.4896 81.949 O 0.0 **** 0.0
14758 C 5.35331 52.1479 76.1012 C 0.0 **** 0.0
14759 C 8.32875 51.7667 75.4745 C 0.0 **** 0.0
14760 H 13.9271 55.5369 89.7646 H 0.0 **** 0.0
14761 H 13.329 56.9135 88.7354 H 0.0 **** 0.0
14762 H 16.3085 59.3874 89.9925 H 0.0 **** 0.0
14763 H 17.2542 58.2369 91.0018 H 0.0 **** 0.0
14764 H 13.5847 54.9996 87.4888 H 0.0 **** 0.0
14765 H 13.7806 50.5949 83.0945 H 0.0 **** 0.0
14766 H 15.53 50.6222 82.4841 H 0.0 **** 0.0
14767 H 14.5839 50.496 85.3696 H 0.0 **** 0.0
14768 H 16.6391 50.5193 86.0564 H 0.0 **** 0.0
14769 H 17.7833 51.5757 83.4877 H 0.0 **** 0.0
14770 H 17.9914 52.0048 85.2378 H 0.0 **** 0.0
14771 H 7.50159 54.611 86.7889 H 0.0 **** 0.0
14772 H 7.26157 55.6867 85.3651 H 0.0 **** 0.0
14773 H 5.3512 54.0834 85.506 H 0.0 **** 0.0
14774 H 6.54898 52.731 85.6313 H 0.0 **** 0.0
14775 H 3.96728 52.1814 84.1127 H 0.0 **** 0.0
14776 H 3.62596 53.9246 83.9993 H 0.0 **** 0.0
14777 H 2.39322 53.7258 82.0576 H 0.0 **** 0.0
14778 H 2.0166 52.1445 82.8385 H 0.0 **** 0.0
14779 H 2.34602 52.0219 80.4656 H 0.0 **** 0.0
14780 H 3.49029 51.0181 81.3586 H 0.0 **** 0.0
14781 H 3.95139 53.9957 80.4122 H 0.0 **** 0.0
14782 H 4.23439 51.431 78.8295 H 0.0 **** 0.0
14783 H 4.08432 53.106 78.3169 H 0.0 **** 0.0
14784 H 9.28528 52.492 79.9052 H 0.0 **** 0.0
14785 H 9.79187 51.5907 77.7152 H 0.0 **** 0.0
14786 H 10.6277 58.4176 92.9212 H 0.0 **** 0.0
14787 H 11.5947 59.1771 94.1135 H 0.0 **** 0.0
14788 H 11.9276 56.9292 95.2834 H 0.0 **** 0.0
14789 H 10.9711 56.0389 93.975 H 0.0 **** 0.0
14790 H 10.2176 57.2699 95.1001 H 0.0 **** 0.0
14791 H 14.1627 60.231 94.7258 H 0.0 **** 0.0
14792 H 15.0793 58.6822 95.1643 H 0.0 **** 0.0
14793 H 13.318 58.7946 95.3719 H 0.0 **** 0.0
14794 H 11.7492 56.0473 90.0934 H 0.0 **** 0.0
14795 H 10.7291 57.3725 90.703 H 0.0 **** 0.0
14796 H 11.2622 55.9228 91.7417 H 0.0 **** 0.0
14797 H 17.0283 60.0352 92.1942 H 0.0 **** 0.0
14798 H 16.6958 59.3641 93.7321 H 0.0 **** 0.0
14799 H 15.771 60.8098 93.0977 H 0.0 **** 0.0
14800 H 19.4374 58.6088 87.9939 H 0.0 **** 0.0
14801 H 19.6229 57.5667 89.5018 H 0.0 **** 0.0
14802 H 18.6734 59.1058 89.5379 H 0.0 **** 0.0
14803 H 19.6576 55.11 86.6857 H 0.0 **** 0.0
14804 H 20.2046 56.5096 87.4561 H 0.0 **** 0.0
14805 H 19.4738 56.7566 85.8228 H 0.0 **** 0.0
14806 H 18.1985 54.224 84.1387 H 0.0 **** 0.0
14807 H 17.3418 48.3808 85.4025 H 0.0 **** 0.0
14808 H 18.6408 49.5391 85.0731 H 0.0 **** 0.0
14809 H 17.6551 48.9745 83.6832 H 0.0 **** 0.0
14810 H 13.755 48.5403 84.2803 H 0.0 **** 0.0
14811 H 15.0428 47.9909 85.4049 H 0.0 **** 0.0
14812 H 15.32 48.026 83.6908 H 0.0 **** 0.0
14813 H 11.73 52.4801 81.4979 H 0.0 **** 0.0
14814 H 11.3464 52.8432 87.694 H 0.0 **** 0.0
14815 H 4.68321 51.3165 76.2885 H 0.0 **** 0.0
14816 H 5.81288 51.9737 75.1151 H 0.0 **** 0.0
14817 H 4.76964 53.06 75.9594 H 0.0 **** 0.0
14818 H 7.9652 50.8024 75.0234 H 0.0 **** 0.0
14819 H 9.48082 51.7262 75.5156 H 0.0 **** 0.0
14820 H 7.95825 52.5683 74.7741 H 0.0 **** 0.0
14821 C 64.6265 56.2355 47.3125 C 0.0 **** 0.0
14822 C 63.9037 56.5396 46.1473 C 0.0 **** 0.0
14823 C 64.1455 55.8436 44.9367 C 0.0 **** 0.0
14824 C 64.8533 54.629 44.979 C 0.0 **** 0.0
14825 C 65.1279 54.0461 46.2343 C 0.0 **** 0.0
14826 C 65.2204 54.9658 47.3878 C 0.0 **** 0.0
14827 C 65.2321 53.9409 43.7019 C 0.0 **** 0.0
14828 C 65.0757 54.7466 42.4082 C 0.0 **** 0.0
14829 C 64.4374 56.0544 42.4249 C 0.0 **** 0.0
14830 C 63.7443 56.5335 43.6919 C 0.0 **** 0.0
14831 C 64.5877 56.9322 41.3094 C 0.0 **** 0.0
14832 C 65.3611 56.5623 40.2105 C 0.0 **** 0.0
14833 C 66.0239 55.2935 40.2096 C 0.0 **** 0.0
14834 C 65.7655 54.3695 41.2275 C 0.0 **** 0.0
14835 C 66.3388 53.0697 41.1832 C 0.0 **** 0.0
14836 C 67.1161 52.6487 40.1141 C 0.0 **** 0.0
14837 C 67.5358 53.6064 39.1725 C 0.0 **** 0.0
14838 C 67.0234 54.9296 39.2207 C 0.0 **** 0.0
14839 C 68.4679 53.2236 38.1143 C 0.0 **** 0.0
14840 C 67.9944 51.9281 37.4877 C 0.0 **** 0.0
14841 C 67.3623 50.967 38.4702 C 0.0 **** 0.0
14842 C 67.3052 51.2676 39.8533 C 0.0 **** 0.0
14843 C 68.9642 51.2987 36.5219 C 0.0 **** 0.0
14844 C 70.4243 51.8869 36.5536 C 0.0 **** 0.0
14845 C 70.818 52.248 37.9168 C 0.0 **** 0.0
14846 C 69.9806 53.4593 38.3792 C 0.0 **** 0.0
14847 C 67.2258 50.2305 40.8545 C 0.0 **** 0.0
14848 C 67.1051 48.8547 40.3562 C 0.0 **** 0.0
14849 C 66.9579 48.5935 38.9544 C 0.0 **** 0.0
14850 C 66.9568 49.6704 38.0744 C 0.0 **** 0.0
14851 C 67.1603 47.2057 38.4681 C 0.0 **** 0.0
14852 C 68.0903 46.3964 39.1747 C 0.0 **** 0.0
14853 C 68.0379 46.5136 40.564 C 0.0 **** 0.0
14854 C 67.4247 47.6724 41.211 C 0.0 **** 0.0
14855 C 68.8609 45.623 41.4194 C 0.0 **** 0.0
14856 C 69.4064 44.4271 40.6557 C 0.0 **** 0.0
14857 C 69.8034 44.6728 39.2077 C 0.0 **** 0.0
14858 C 69.0882 45.6599 38.527 C 0.0 **** 0.0
14859 N 69.4108 45.9119 37.2724 N 0.0 **** 0.0
14860 C 70.3625 45.2854 36.5921 C 0.0 **** 0.0
14861 C 71.0807 44.2232 37.2442 C 0.0 **** 0.0
14862 C 70.7151 43.8701 38.5546 C 0.0 **** 0.0
14863 C 71.4772 42.7593 39.314 C 0.0 **** 0.0
14864 C 72.4424 41.9587 38.4323 C 0.0 **** 0.0
14865 C 73.0751 42.7983 37.3878 C 0.0 **** 0.0
14866 C 72.0362 43.3671 36.4543 C 0.0 **** 0.0
14867 C 72.7478 44.1692 35.3509 C 0.0 **** 0.0
14868 C 71.7943 45.0032 34.5875 C 0.0 **** 0.0
14869 C 70.6905 45.6409 35.2861 C 0.0 **** 0.0
14870 C 69.8571 46.6008 34.6667 C 0.0 **** 0.0
14871 C 70.1977 47.075 33.4297 C 0.0 **** 0.0
14872 C 71.2996 46.5302 32.7648 C 0.0 **** 0.0
14873 C 72.0947 45.4274 33.2636 C 0.0 **** 0.0
14874 C 66.144 54.5453 48.5628 C 0.0 **** 0.0
14875 C 67.4956 55.3075 48.5118 C 0.0 **** 0.0
14876 C 64.5641 57.1463 48.5315 C 0.0 **** 0.0
14877 C 65.7568 52.6393 46.3344 C 0.0 **** 0.0
14878 C 62.799 57.6041 46.2218 C 0.0 **** 0.0
14879 C 63.8923 58.3041 41.3556 C 0.0 **** 0.0
14880 C 65.1215 57.3068 38.8895 C 0.0 **** 0.0
14881 O 67.3842 55.8688 38.2827 O 0.0 **** 0.0
14882 C 72.3704 52.4752 38.0371 C 0.0 **** 0.0
14883 C 70.6146 53.0773 35.5764 C 0.0 **** 0.0
14884 O 66.446 49.3998 36.8214 O 0.0 **** 0.0
14885 O 67.45 50.5818 42.1993 O 0.0 **** 0.0
14886 O 67.0994 47.5953 42.3607 O 0.0 **** 0.0
14887 O 66.6825 46.7842 37.4393 O 0.0 **** 0.0
14888 C 73.0537 44.72 32.3351 C 0.0 **** 0.0
14889 C 71.7453 47.2293 31.544 C 0.0 **** 0.0
14890 H 66.294 53.6478 43.7675 H 0.0 **** 0.0
14891 H 64.5789 53.046 43.6154 H 0.0 **** 0.0
14892 H 62.6316 56.4326 43.5464 H 0.0 **** 0.0
14893 H 63.9652 57.594 43.8045 H 0.0 **** 0.0
14894 H 65.9501 52.3602 41.8597 H 0.0 **** 0.0
14895 H 69.0602 50.1924 36.6713 H 0.0 **** 0.0
14896 H 68.5457 51.5608 35.4873 H 0.0 **** 0.0
14897 H 71.0941 51.0582 36.1574 H 0.0 **** 0.0
14898 H 70.5422 51.3541 38.5665 H 0.0 **** 0.0
14899 H 70.2228 54.3399 37.7475 H 0.0 **** 0.0
14900 H 70.3 53.6648 39.4145 H 0.0 **** 0.0
14901 H 69.7507 46.1914 41.7813 H 0.0 **** 0.0
14902 H 68.2534 45.2075 42.2674 H 0.0 **** 0.0
14903 H 68.7 43.5914 40.6003 H 0.0 **** 0.0
14904 H 70.2872 44.067 41.2269 H 0.0 **** 0.0
14905 H 72.0618 43.2081 40.1539 H 0.0 **** 0.0
14906 H 70.829 42.0297 39.7745 H 0.0 **** 0.0
14907 H 71.9057 41.0868 37.9267 H 0.0 **** 0.0
14908 H 73.2461 41.5464 39.0679 H 0.0 **** 0.0
14909 H 73.7974 42.1695 36.7937 H 0.0 **** 0.0
14910 H 73.5749 43.6669 37.7936 H 0.0 **** 0.0
14911 H 71.4092 42.5267 35.9643 H 0.0 **** 0.0
14912 H 73.5124 44.915 35.7537 H 0.0 **** 0.0
14913 H 73.2619 43.442 34.6834 H 0.0 **** 0.0
14914 H 69.0382 47.0587 35.1874 H 0.0 **** 0.0
14915 H 69.6015 47.8609 32.9966 H 0.0 **** 0.0
14916 H 66.3095 53.4766 48.6229 H 0.0 **** 0.0
14917 H 65.7292 54.7851 49.5605 H 0.0 **** 0.0
14918 H 67.3945 56.3855 48.8088 H 0.0 **** 0.0
14919 H 67.9561 55.236 47.4922 H 0.0 **** 0.0
14920 H 68.192 54.9357 49.2746 H 0.0 **** 0.0
14921 H 64.8012 58.164 48.2389 H 0.0 **** 0.0
14922 H 65.1907 56.8611 49.3356 H 0.0 **** 0.0
14923 H 63.5312 57.1357 49.0095 H 0.0 **** 0.0
14924 H 65.4042 52.0388 45.4756 H 0.0 **** 0.0
14925 H 65.4 52.0606 47.1563 H 0.0 **** 0.0
14926 H 66.8428 52.7033 46.3848 H 0.0 **** 0.0
14927 H 61.9839 57.4308 45.4364 H 0.0 **** 0.0
14928 H 63.1174 58.6519 46.1259 H 0.0 **** 0.0
14929 H 62.2252 57.5405 47.1474 H 0.0 **** 0.0
14930 H 62.8255 58.1452 41.3183 H 0.0 **** 0.0
14931 H 64.0582 58.9696 40.4894 H 0.0 **** 0.0
14932 H 64.3224 58.9064 42.2458 H 0.0 **** 0.0
14933 H 65.8393 58.1821 38.892 H 0.0 **** 0.0
14934 H 64.0675 57.679 38.8036 H 0.0 **** 0.0
14935 H 65.27 56.7218 37.9625 H 0.0 **** 0.0
14936 H 68.2934 55.7225 37.9445 H 0.0 **** 0.0
14937 H 72.8393 51.7631 37.3525 H 0.0 **** 0.0
14938 H 72.6954 52.3229 39.1149 H 0.0 **** 0.0
14939 H 72.6687 53.5028 37.763 H 0.0 **** 0.0
14940 H 70.8597 52.6963 34.5379 H 0.0 **** 0.0
14941 H 71.4809 53.6261 35.851 H 0.0 **** 0.0
14942 H 69.7711 53.7937 35.545 H 0.0 **** 0.0
14943 H 66.4541 50.2065 36.2196 H 0.0 **** 0.0
14944 H 67.8017 49.8097 42.7337 H 0.0 **** 0.0
14945 H 74.0189 44.7259 32.855 H 0.0 **** 0.0
14946 H 73.2058 45.2052 31.3454 H 0.0 **** 0.0
14947 H 72.6532 43.7024 32.0987 H 0.0 **** 0.0
14948 H 71.2376 48.1847 31.4312 H 0.0 **** 0.0
14949 H 71.583 46.5535 30.6462 H 0.0 **** 0.0
14950 H 72.823 47.4478 31.5906 H 0.0 **** 0.0
14951 C 47.0003 79.2087 57.5849 C 0.0 **** 0.0
14952 C 46.0745 79.6374 56.5854 C 0.0 **** 0.0
14953 C 46.2848 79.3847 55.2167 C 0.0 **** 0.0
14954 C 47.3961 78.615 54.8235 C 0.0 **** 0.0
14955 C 48.2561 78.0653 55.8226 C 0.0 **** 0.0
14956 C 48.1043 78.3813 57.218 C 0.0 **** 0.0
14957 C 47.6437 78.2462 53.4047 C 0.0 **** 0.0
14958 C 46.8151 78.912 52.3415 C 0.0 **** 0.0
14959 C 45.7149 79.6963 52.7021 C 0.0 **** 0.0
14960 C 45.3126 79.8684 54.172 C 0.0 **** 0.0
14961 C 44.9667 80.351 51.6876 C 0.0 **** 0.0
14962 C 45.4503 80.4116 50.3258 C 0.0 **** 0.0
14963 C 46.496 79.4729 49.9438 C 0.0 **** 0.0
14964 C 47.0834 78.6824 50.9605 C 0.0 **** 0.0
14965 C 47.9493 77.6651 50.5762 C 0.0 **** 0.0
14966 C 48.2772 77.3972 49.2106 C 0.0 **** 0.0
14967 C 47.9529 78.381 48.2834 C 0.0 **** 0.0
14968 C 46.9002 79.2914 48.6008 C 0.0 **** 0.0
14969 C 48.6601 78.4721 46.9642 C 0.0 **** 0.0
14970 C 49.7148 77.3819 46.7099 C 0.0 **** 0.0
14971 C 49.4899 76.1255 47.5207 C 0.0 **** 0.0
14972 C 48.8722 76.1577 48.7806 C 0.0 **** 0.0
14973 C 51.1535 77.8803 46.816 C 0.0 **** 0.0
14974 C 51.4044 78.9596 45.7363 C 0.0 **** 0.0
14975 C 50.2072 79.8963 45.5318 C 0.0 **** 0.0
14976 C 49.2866 79.8661 46.7711 C 0.0 **** 0.0
14977 C 48.9222 74.9707 49.5977 C 0.0 **** 0.0
14978 C 49.5035 73.77 49.0716 C 0.0 **** 0.0
14979 C 49.8279 73.72 47.6847 C 0.0 **** 0.0
14980 C 49.9811 74.9172 46.9641 C 0.0 **** 0.0
14981 C 49.5993 72.4306 47.0037 C 0.0 **** 0.0
14982 C 49.6513 71.1585 47.8344 C 0.0 **** 0.0
14983 C 49.9573 71.2663 49.2035 C 0.0 **** 0.0
14984 C 49.8334 72.5766 49.8584 C 0.0 **** 0.0
14985 C 50.3215 70.0568 50.0188 C 0.0 **** 0.0
14986 C 50.7173 68.8598 49.1988 C 0.0 **** 0.0
14987 C 49.9506 68.763 47.8796 C 0.0 **** 0.0
14988 C 49.4871 69.9157 47.2549 C 0.0 **** 0.0
14989 N 48.9451 69.8435 46.0189 N 0.0 **** 0.0
14990 C 48.9741 68.7123 45.245 C 0.0 **** 0.0
14991 C 49.3744 67.5154 45.8306 C 0.0 **** 0.0
14992 C 49.8223 67.4866 47.1955 C 0.0 **** 0.0
14993 C 50.025 66.1834 47.919 C 0.0 **** 0.0
14994 C 49.4786 64.9799 47.1202 C 0.0 **** 0.0
14995 C 49.8477 65.0422 45.6524 C 0.0 **** 0.0
14996 C 49.1795 66.2452 45.0222 C 0.0 **** 0.0
14997 C 49.8032 66.5499 43.6727 C 0.0 **** 0.0
14998 C 49.1149 67.7724 43.0295 C 0.0 **** 0.0
14999 C 48.7265 68.8033 43.8538 C 0.0 **** 0.0
15000 C 48.2005 69.9934 43.2757 C 0.0 **** 0.0
15001 C 48.0223 70.0609 41.8432 C 0.0 **** 0.0
15002 C 48.2561 68.9318 41.0676 C 0.0 **** 0.0
15003 C 48.7662 67.7584 41.637 C 0.0 **** 0.0
15004 C 49.2571 78.0895 58.211 C 0.0 **** 0.0
15005 C 50.3184 79.1842 58.2582 C 0.0 **** 0.0
15006 C 46.8434 79.7019 59.0039 C 0.0 **** 0.0
15007 C 49.2988 77.025 55.5222 C 0.0 **** 0.0
15008 C 44.8299 80.3396 57.0206 C 0.0 **** 0.0
15009 C 43.6266 80.9602 52.0234 C 0.0 **** 0.0
15010 C 44.9118 81.5062 49.3787 C 0.0 **** 0.0
15011 O 46.1921 79.9026 47.5852 O 0.0 **** 0.0
15012 C 49.3718 79.6745 44.2178 C 0.0 **** 0.0
15013 C 51.825 78.2147 44.4937 C 0.0 **** 0.0
15014 O 50.5468 74.9802 45.7088 O 0.0 **** 0.0
15015 O 48.1146 74.8745 50.7698 O 0.0 **** 0.0
15016 O 50.0559 72.6811 51.046 O 0.0 **** 0.0
15017 O 49.2319 72.4056 45.8261 O 0.0 **** 0.0
15018 C 48.9136 66.4796 40.7969 C 0.0 **** 0.0
15019 C 47.8799 68.9355 39.5946 C 0.0 **** 0.0
15020 H 48.6703 78.4797 53.2089 H 0.0 **** 0.0
15021 H 47.5435 77.1192 53.3403 H 0.0 **** 0.0
15022 H 44.3842 79.2598 54.3101 H 0.0 **** 0.0
15023 H 45.1175 80.9524 54.3846 H 0.0 **** 0.0
15024 H 48.4129 77.0379 51.3146 H 0.0 **** 0.0
15025 H 51.2921 78.3849 47.8179 H 0.0 **** 0.0
15026 H 51.8774 77.0427 46.7502 H 0.0 **** 0.0
15027 H 52.301 79.5448 46.0239 H 0.0 **** 0.0
15028 H 50.5876 80.9293 45.4354 H 0.0 **** 0.0
15029 H 48.4322 80.5899 46.5687 H 0.0 **** 0.0
15030 H 49.866 80.1965 47.675 H 0.0 **** 0.0
15031 H 51.1433 70.2743 50.6771 H 0.0 **** 0.0
15032 H 49.5221 69.8081 50.7688 H 0.0 **** 0.0
15033 H 50.5676 67.9208 49.8385 H 0.0 **** 0.0
15034 H 51.7867 68.8376 48.9304 H 0.0 **** 0.0
15035 H 51.0901 65.9685 48.2152 H 0.0 **** 0.0
15036 H 49.3825 66.2523 48.8133 H 0.0 **** 0.0
15037 H 48.3584 64.9862 47.1107 H 0.0 **** 0.0
15038 H 49.8398 64.0387 47.5324 H 0.0 **** 0.0
15039 H 49.5127 64.1029 45.155 H 0.0 **** 0.0
15040 H 50.9572 65.1209 45.5621 H 0.0 **** 0.0
15041 H 48.1264 66.0512 44.8826 H 0.0 **** 0.0
15042 H 50.8926 66.7327 43.6927 H 0.0 **** 0.0
15043 H 49.6126 65.6506 43.0719 H 0.0 **** 0.0
15044 H 47.8903 70.8626 43.8954 H 0.0 **** 0.0
15045 H 47.5912 70.9433 41.3882 H 0.0 **** 0.0
15046 H 49.7389 77.1299 58.0396 H 0.0 **** 0.0
15047 H 48.8222 77.9478 59.2201 H 0.0 **** 0.0
15048 H 49.7902 80.1475 58.1082 H 0.0 **** 0.0
15049 H 51.0451 79.0103 57.4557 H 0.0 **** 0.0
15050 H 50.8361 79.1811 59.1958 H 0.0 **** 0.0
15051 H 46.3939 80.6822 59.0865 H 0.0 **** 0.0
15052 H 47.8272 79.9394 59.408 H 0.0 **** 0.0
15053 H 46.3781 78.8968 59.5913 H 0.0 **** 0.0
15054 H 50.3194 77.4253 55.7624 H 0.0 **** 0.0
15055 H 49.3584 76.7192 54.451 H 0.0 **** 0.0
15056 H 49.0894 76.1059 56.1151 H 0.0 **** 0.0
15057 H 43.971 80.0726 56.4227 H 0.0 **** 0.0
15058 H 44.9737 81.4713 56.9815 H 0.0 **** 0.0
15059 H 44.4795 79.9862 58.002 H 0.0 **** 0.0
15060 H 42.8539 80.6404 51.3413 H 0.0 **** 0.0
15061 H 43.7548 82.0547 51.9155 H 0.0 **** 0.0
15062 H 43.296 80.7284 53.0551 H 0.0 **** 0.0
15063 H 45.7602 82.048 48.9047 H 0.0 **** 0.0
15064 H 44.3429 82.2768 49.9115 H 0.0 **** 0.0
15065 H 44.232 80.9576 48.681 H 0.0 **** 0.0
15066 H 46.3658 79.597 46.6337 H 0.0 **** 0.0
15067 H 50.0536 79.9976 43.4036 H 0.0 **** 0.0
15068 H 48.5223 80.4171 44.1836 H 0.0 **** 0.0
15069 H 48.9992 78.6631 44.0721 H 0.0 **** 0.0
15070 H 52.7463 77.6267 44.7619 H 0.0 **** 0.0
15071 H 52.0453 78.8707 43.6469 H 0.0 **** 0.0
15072 H 51.0657 77.5087 44.1252 H 0.0 **** 0.0
15073 H 51.0496 74.1629 45.4591 H 0.0 **** 0.0
15074 H 48.0397 73.9914 51.2046 H 0.0 **** 0.0
15075 H 49.9583 66.1267 40.9166 H 0.0 **** 0.0
15076 H 48.7797 66.623 39.7394 H 0.0 **** 0.0
15077 H 48.2439 65.6727 41.1783 H 0.0 **** 0.0
15078 H 48.7757 68.7146 39.0312 H 0.0 **** 0.0
15079 H 47.4208 69.8958 39.3366 H 0.0 **** 0.0
15080 H 47.0178 68.1961 39.4761 H 0.0 **** 0.0
15081 C 59.1597 18.8384 61.4187 C 0.0 **** 0.0
15082 C 59.9837 17.765 61.0009 C 0.0 **** 0.0
15083 C 60.1737 17.5408 59.632 C 0.0 **** 0.0
15084 C 59.6506 18.4748 58.7124 C 0.0 **** 0.0
15085 C 58.876 19.6242 59.0998 C 0.0 **** 0.0
15086 C 58.546 19.793 60.4822 C 0.0 **** 0.0
15087 C 59.7673 18.2729 57.2326 C 0.0 **** 0.0
15088 C 60.5447 17.0911 56.7857 C 0.0 **** 0.0
15089 C 61.1537 16.226 57.6943 C 0.0 **** 0.0
15090 C 61.0698 16.4515 59.1434 C 0.0 **** 0.0
15091 C 61.8991 15.1401 57.1946 C 0.0 **** 0.0
15092 C 62.2826 15.0986 55.832 C 0.0 **** 0.0
15093 C 61.759 16.0675 54.884 C 0.0 **** 0.0
15094 C 60.7544 16.9491 55.3726 C 0.0 **** 0.0
15095 C 60.1641 17.8737 54.4411 C 0.0 **** 0.0
15096 C 60.41 17.8183 53.0481 C 0.0 **** 0.0
15097 C 61.2453 16.7796 52.5861 C 0.0 **** 0.0
15098 C 62.1098 16.1126 53.5109 C 0.0 **** 0.0
15099 C 61.1827 16.4004 51.1466 C 0.0 **** 0.0
15100 C 60.1155 17.1364 50.3203 C 0.0 **** 0.0
15101 C 59.8633 18.5631 50.732 C 0.0 **** 0.0
15102 C 59.8992 18.8049 52.1303 C 0.0 **** 0.0
15103 C 60.1105 16.7795 48.8505 C 0.0 **** 0.0
15104 C 60.1265 15.2132 48.6852 C 0.0 **** 0.0
15105 C 61.144 14.5334 49.5059 C 0.0 **** 0.0
15106 C 61.0391 14.9097 50.991 C 0.0 **** 0.0
15107 C 59.576 20.118 52.5947 C 0.0 **** 0.0
15108 C 58.9212 21.019 51.7026 C 0.0 **** 0.0
15109 C 59.0103 20.8177 50.3142 C 0.0 **** 0.0
15110 C 59.5724 19.6025 49.8104 C 0.0 **** 0.0
15111 C 58.5198 21.9402 49.4199 C 0.0 **** 0.0
15112 C 58.1546 23.2754 50.0199 C 0.0 **** 0.0
15113 C 57.8259 23.3166 51.3687 C 0.0 **** 0.0
15114 C 58.2737 22.223 52.2263 C 0.0 **** 0.0
15115 C 57.2174 24.5524 52.0168 C 0.0 **** 0.0
15116 C 56.594 25.5084 50.9689 C 0.0 **** 0.0
15117 C 57.4877 25.6655 49.7678 C 0.0 **** 0.0
15118 C 58.1178 24.4717 49.2516 C 0.0 **** 0.0
15119 N 58.6562 24.4822 47.9899 N 0.0 **** 0.0
15120 C 58.7474 25.6648 47.26 C 0.0 **** 0.0
15121 C 58.3085 26.8714 47.7854 C 0.0 **** 0.0
15122 C 57.7381 26.8832 49.0685 C 0.0 **** 0.0
15123 C 57.2406 28.1716 49.6345 C 0.0 **** 0.0
15124 C 57.7445 29.4592 48.9388 C 0.0 **** 0.0
15125 C 57.7644 29.3118 47.4208 C 0.0 **** 0.0
15126 C 58.6556 28.1336 47.0054 C 0.0 **** 0.0
15127 C 58.6206 27.9461 45.5132 C 0.0 **** 0.0
15128 C 59.3396 26.7109 45.1205 C 0.0 **** 0.0
15129 C 59.309 25.6047 45.946 C 0.0 **** 0.0
15130 C 59.7548 24.3786 45.4258 C 0.0 **** 0.0
15131 C 60.3561 24.2241 44.1852 C 0.0 **** 0.0
15132 C 60.5168 25.3463 43.4283 C 0.0 **** 0.0
15133 C 60.0268 26.6071 43.8476 C 0.0 **** 0.0
15134 C 57.6888 21.0056 60.9799 C 0.0 **** 0.0
15135 C 56.254 20.583 61.2358 C 0.0 **** 0.0
15136 C 58.974 19.0837 62.8812 C 0.0 **** 0.0
15137 C 58.3003 20.5972 58.1447 C 0.0 **** 0.0
15138 C 60.7314 16.8815 62.0288 C 0.0 **** 0.0
15139 C 62.4322 14.0332 58.0981 C 0.0 **** 0.0
15140 C 63.1032 13.9863 55.2813 C 0.0 **** 0.0
15141 O 63.3258 15.5441 53.0837 O 0.0 **** 0.0
15142 C 62.5721 14.6248 48.9689 C 0.0 **** 0.0
15143 C 60.2842 14.8551 47.1553 C 0.0 **** 0.0
15144 O 59.9793 19.5383 48.4321 O 0.0 **** 0.0
15145 O 59.8689 20.5186 53.9008 O 0.0 **** 0.0
15146 O 57.9734 22.2482 53.3998 O 0.0 **** 0.0
15147 O 58.3761 21.7565 48.2566 O 0.0 **** 0.0
15148 C 60.2972 27.8761 43.0317 C 0.0 **** 0.0
15149 C 61.2203 25.205 42.1259 C 0.0 **** 0.0
15150 H 58.7299 18.1461 56.8855 H 0.0 **** 0.0
15151 H 60.3171 19.145 56.8171 H 0.0 **** 0.0
15152 H 62.0451 16.6881 59.5006 H 0.0 **** 0.0
15153 H 60.7403 15.4905 59.6326 H 0.0 **** 0.0
15154 H 59.3384 18.4992 54.7547 H 0.0 **** 0.0
15155 H 59.1507 17.1015 48.4345 H 0.0 **** 0.0
15156 H 61.0045 17.2416 48.3526 H 0.0 **** 0.0
15157 H 59.0832 14.8751 49.0333 H 0.0 **** 0.0
15158 H 60.9387 13.4211 49.4336 H 0.0 **** 0.0
15159 H 61.81 14.3501 51.5247 H 0.0 **** 0.0
15160 H 60.0943 14.5445 51.4667 H 0.0 **** 0.0
15161 H 56.4293 24.2348 52.7447 H 0.0 **** 0.0
15162 H 58.0114 25.0963 52.5471 H 0.0 **** 0.0
15163 H 56.2923 26.4475 51.4665 H 0.0 **** 0.0
15164 H 55.6011 25.121 50.6153 H 0.0 **** 0.0
15165 H 56.1236 28.1707 49.5388 H 0.0 **** 0.0
15166 H 57.5627 28.2401 50.6996 H 0.0 **** 0.0
15167 H 58.7881 29.699 49.3595 H 0.0 **** 0.0
15168 H 57.1377 30.3607 49.3078 H 0.0 **** 0.0
15169 H 58.0962 30.2528 46.9086 H 0.0 **** 0.0
15170 H 56.7179 29.1205 47.129 H 0.0 **** 0.0
15171 H 59.6982 28.4691 47.27 H 0.0 **** 0.0
15172 H 57.5704 27.9072 45.1767 H 0.0 **** 0.0
15173 H 59.102 28.8255 45.0382 H 0.0 **** 0.0
15174 H 59.6224 23.4435 45.9709 H 0.0 **** 0.0
15175 H 60.7094 23.2137 43.8568 H 0.0 **** 0.0
15176 H 57.7143 21.8204 60.3074 H 0.0 **** 0.0
15177 H 58.1066 21.3568 61.9639 H 0.0 **** 0.0
15178 H 56.2024 19.4582 61.3307 H 0.0 **** 0.0
15179 H 55.6156 20.8965 60.3405 H 0.0 **** 0.0
15180 H 55.8604 21.0877 62.1602 H 0.0 **** 0.0
15181 H 59.2837 18.2979 63.5585 H 0.0 **** 0.0
15182 H 57.8836 19.177 63.1321 H 0.0 **** 0.0
15183 H 59.5367 20.0092 63.1307 H 0.0 **** 0.0
15184 H 58.5729 20.4773 57.0577 H 0.0 **** 0.0
15185 H 58.6846 21.5923 58.4218 H 0.0 **** 0.0
15186 H 57.1725 20.6182 58.2254 H 0.0 **** 0.0
15187 H 61.3395 16.0763 61.5863 H 0.0 **** 0.0
15188 H 60.0795 16.4439 62.7562 H 0.0 **** 0.0
15189 H 61.5034 17.5314 62.5747 H 0.0 **** 0.0
15190 H 63.5826 13.9263 58.0272 H 0.0 **** 0.0
15191 H 61.8567 13.0766 57.9184 H 0.0 **** 0.0
15192 H 62.3354 14.1576 59.1937 H 0.0 **** 0.0
15193 H 62.7543 13.5972 54.3263 H 0.0 **** 0.0
15194 H 63.2768 13.1582 55.9859 H 0.0 **** 0.0
15195 H 64.064 14.4603 55.0826 H 0.0 **** 0.0
15196 H 63.6388 15.8301 52.1219 H 0.0 **** 0.0
15197 H 62.7024 13.8856 48.1446 H 0.0 **** 0.0
15198 H 63.3417 14.3314 49.7355 H 0.0 **** 0.0
15199 H 62.7724 15.6881 48.6264 H 0.0 **** 0.0
15200 H 59.5104 15.3293 46.5642 H 0.0 **** 0.0
15201 H 60.1676 13.7453 47.0451 H 0.0 **** 0.0
15202 H 61.264 15.1406 46.6906 H 0.0 **** 0.0
15203 H 60.3018 20.4521 48.0929 H 0.0 **** 0.0
15204 H 60.1502 21.4924 53.8477 H 0.0 **** 0.0
15205 H 59.3478 28.3263 42.717 H 0.0 **** 0.0
15206 H 60.8461 27.6923 42.103 H 0.0 **** 0.0
15207 H 60.8876 28.5565 43.6335 H 0.0 **** 0.0
15208 H 60.5697 25.5023 41.2803 H 0.0 **** 0.0
15209 H 61.6505 24.1702 41.9234 H 0.0 **** 0.0
15210 H 62.1376 25.8879 42.1295 H 0.0 **** 0.0
15211 C 0.235663 53.7705 88.7087 C 0.0 **** 0.0
15212 C 1.50325 53.3799 89.1433 C 0.0 **** 0.0
15213 C 1.74239 53.1781 90.5442 C 0.0 **** 0.0
15214 C 0.666416 53.2455 91.4732 C 0.0 **** 0.0
15215 C -0.63738 53.5463 90.9847 C 0.0 **** 0.0
15216 C -0.840269 53.7914 89.6019 C 0.0 **** 0.0
15217 C 0.936925 52.8439 92.8861 C 0.0 **** 0.0
15218 C 2.24925 53.2985 93.4046 C 0.0 **** 0.0
15219 C 3.32579 53.4201 92.4507 C 0.0 **** 0.0
15220 C 3.15284 52.8093 91.0639 C 0.0 **** 0.0
15221 C 4.53084 53.9769 92.88 C 0.0 **** 0.0
15222 C 4.60914 54.7237 94.1173 C 0.0 **** 0.0
15223 C 3.59797 54.4553 95.0993 C 0.0 **** 0.0
15224 C 2.46764 53.656 94.7517 C 0.0 **** 0.0
15225 C 1.50994 53.3161 95.708 C 0.0 **** 0.0
15226 C 1.78846 53.5863 97.0457 C 0.0 **** 0.0
15227 C 2.6725 54.6291 97.3636 C 0.0 **** 0.0
15228 C 3.67823 54.9574 96.448 C 0.0 **** 0.0
15229 C 2.54207 55.384 98.6645 C 0.0 **** 0.0
15230 C 1.39438 54.8812 99.5088 C 0.0 **** 0.0
15231 C 1.06695 53.3894 99.3642 C 0.0 **** 0.0
15232 C 1.18444 52.8024 98.0635 C 0.0 **** 0.0
15233 C 1.18342 55.6507 100.832 C 0.0 **** 0.0
15234 C 1.22554 57.1751 100.551 C 0.0 **** 0.0
15235 C 2.29862 57.6721 99.6485 C 0.0 **** 0.0
15236 C 2.37944 56.8661 98.3607 C 0.0 **** 0.0
15237 C 0.889288 51.4299 97.8623 C 0.0 **** 0.0
15238 C 0.451289 50.6413 98.9967 C 0.0 **** 0.0
15239 C 0.34902 51.1936 100.262 C 0.0 **** 0.0
15240 C 0.628653 52.5896 100.449 C 0.0 **** 0.0
15241 C -0.131039 50.315 101.376 C 0.0 **** 0.0
15242 C 0.0623532 48.8633 101.307 C 0.0 **** 0.0
15243 C 0.097676 48.2745 100.036 C 0.0 **** 0.0
15244 C 0.209934 49.1617 98.8238 C 0.0 **** 0.0
15245 C -0.0721577 46.7905 99.8349 C 0.0 **** 0.0
15246 C 0.40817 45.9231 101.01 C 0.0 **** 0.0
15247 C 0.475628 46.6703 102.352 C 0.0 **** 0.0
15248 C 0.222435 48.0812 102.428 C 0.0 **** 0.0
15249 N 0.27778 48.6652 103.635 N 0.0 **** 0.0
15250 C 0.535189 48.0067 104.787 C 0.0 **** 0.0
15251 C 0.768092 46.5952 104.76 C 0.0 **** 0.0
15252 C 0.782777 45.9217 103.498 C 0.0 **** 0.0
15253 C 0.886332 44.3749 103.445 C 0.0 **** 0.0
15254 C 1.47679 43.7212 104.688 C 0.0 **** 0.0
15255 C 0.910015 44.405 105.948 C 0.0 **** 0.0
15256 C 1.25345 45.9072 105.979 C 0.0 **** 0.0
15257 C 0.775733 46.6287 107.285 C 0.0 **** 0.0
15258 C 0.627288 48.1419 107.215 C 0.0 **** 0.0
15259 C 0.512378 48.7851 105.964 C 0.0 **** 0.0
15260 C 0.374816 50.2176 105.92 C 0.0 **** 0.0
15261 C 0.253842 51.0049 107.065 C 0.0 **** 0.0
15262 C 0.464469 50.3598 108.305 C 0.0 **** 0.0
15263 C 0.658189 48.951 108.414 C 0.0 **** 0.0
15264 C -2.25173 54.0704 89.0624 C 0.0 **** 0.0
15265 C -2.62807 55.5195 89.2812 C 0.0 **** 0.0
15266 C 0.0979802 54.3494 87.3034 C 0.0 **** 0.0
15267 C -1.81543 53.4965 91.9627 C 0.0 **** 0.0
15268 C 2.60333 53.0384 88.1513 C 0.0 **** 0.0
15269 C 5.76713 53.85 92.0854 C 0.0 **** 0.0
15270 C 5.70173 55.8396 94.2862 C 0.0 **** 0.0
15271 O 4.8061 55.7231 96.8866 O 0.0 **** 0.0
15272 C 3.64889 57.6372 100.328 C 0.0 **** 0.0
15273 C 1.08802 57.9678 101.859 C 0.0 **** 0.0
15274 O 0.566303 53.1001 101.762 O 0.0 **** 0.0
15275 O 1.51012 50.8626 96.7239 O 0.0 **** 0.0
15276 O 0.342791 48.6231 97.7454 O 0.0 **** 0.0
15277 O -0.767721 50.7975 102.259 O 0.0 **** 0.0
15278 C 1.07329 48.3629 109.753 C 0.0 **** 0.0
15279 C 0.589167 51.2362 109.537 C 0.0 **** 0.0
15280 H 0.143149 53.2101 93.5259 H 0.0 **** 0.0
15281 H 0.967195 51.7656 93.0848 H 0.0 **** 0.0
15282 H 3.22322 51.6937 91.0874 H 0.0 **** 0.0
15283 H 3.95502 53.2002 90.3764 H 0.0 **** 0.0
15284 H 0.646731 52.6972 95.4575 H 0.0 **** 0.0
15285 H 0.175212 55.355 101.272 H 0.0 **** 0.0
15286 H 1.9239 55.2276 101.529 H 0.0 **** 0.0
15287 H 0.324008 57.336 100.006 H 0.0 **** 0.0
15288 H 2.0405 58.7453 99.3768 H 0.0 **** 0.0
15289 H 3.12364 57.3199 97.7101 H 0.0 **** 0.0
15290 H 1.45378 57.0637 97.7634 H 0.0 **** 0.0
15291 H -1.17485 46.5368 99.6384 H 0.0 **** 0.0
15292 H 0.43877 46.5091 98.9192 H 0.0 **** 0.0
15293 H 1.41931 45.4886 100.779 H 0.0 **** 0.0
15294 H -0.305998 45.071 101.059 H 0.0 **** 0.0
15295 H -0.129218 44.0084 103.299 H 0.0 **** 0.0
15296 H 1.46921 44.0763 102.515 H 0.0 **** 0.0
15297 H 2.62498 43.7695 104.736 H 0.0 **** 0.0
15298 H 1.19451 42.6544 104.775 H 0.0 **** 0.0
15299 H 1.2837 43.9308 106.899 H 0.0 **** 0.0
15300 H -0.160794 44.252 105.875 H 0.0 **** 0.0
15301 H 2.37181 45.9654 105.91 H 0.0 **** 0.0
15302 H -0.203096 46.2393 107.587 H 0.0 **** 0.0
15303 H 1.52232 46.3902 108.117 H 0.0 **** 0.0
15304 H 0.267078 50.7173 104.973 H 0.0 **** 0.0
15305 H 0.117041 52.0825 106.987 H 0.0 **** 0.0
15306 H -3.00102 53.2999 89.4781 H 0.0 **** 0.0
15307 H -2.31675 53.8468 87.9464 H 0.0 **** 0.0
15308 H -1.77908 56.1625 88.8487 H 0.0 **** 0.0
15309 H -2.82353 55.7244 90.3485 H 0.0 **** 0.0
15310 H -3.53505 55.7718 88.6845 H 0.0 **** 0.0
15311 H 1.00509 54.9413 87.0237 H 0.0 **** 0.0
15312 H -0.750659 55.0321 87.1437 H 0.0 **** 0.0
15313 H -0.0341682 53.5345 86.5397 H 0.0 **** 0.0
15314 H -1.68902 54.1596 92.9063 H 0.0 **** 0.0
15315 H -1.96224 52.4852 92.3115 H 0.0 **** 0.0
15316 H -2.74801 53.7637 91.496 H 0.0 **** 0.0
15317 H 3.16309 52.1121 88.4453 H 0.0 **** 0.0
15318 H 3.33294 53.8959 88.1421 H 0.0 **** 0.0
15319 H 2.21339 52.8432 87.1409 H 0.0 **** 0.0
15320 H 6.63257 54.3307 92.5867 H 0.0 **** 0.0
15321 H 5.63286 54.4201 91.1683 H 0.0 **** 0.0
15322 H 5.90759 52.7834 91.8625 H 0.0 **** 0.0
15323 H 5.36938 56.7703 94.8457 H 0.0 **** 0.0
15324 H 5.91045 56.2695 93.2705 H 0.0 **** 0.0
15325 H 6.6589 55.4542 94.7529 H 0.0 **** 0.0
15326 H 4.83166 55.9369 97.8722 H 0.0 **** 0.0
15327 H 3.64694 58.3699 101.163 H 0.0 **** 0.0
15328 H 4.45424 57.9611 99.6528 H 0.0 **** 0.0
15329 H 3.87205 56.6311 100.644 H 0.0 **** 0.0
15330 H 0.26316 57.5984 102.513 H 0.0 **** 0.0
15331 H 0.932742 59.0362 101.699 H 0.0 **** 0.0
15332 H 1.97414 57.8431 102.504 H 0.0 **** 0.0
15333 H 0.925031 52.4431 102.477 H 0.0 **** 0.0
15334 H 2.00182 50.0029 96.8988 H 0.0 **** 0.0
15335 H 1.06419 49.0611 110.621 H 0.0 **** 0.0
15336 H 2.19061 48.0532 109.587 H 0.0 **** 0.0
15337 H 0.496164 47.432 110.053 H 0.0 **** 0.0
15338 H 1.58234 51.077 109.908 H 0.0 **** 0.0
15339 H -0.239694 51.0259 110.265 H 0.0 **** 0.0
15340 H 0.484557 52.3155 109.369 H 0.0 **** 0.0
15341 C 52.7248 32.2614 104.504 C 0.0 **** 0.0
15342 C 52.5467 31.0002 103.777 C 0.0 **** 0.0
15343 C 53.6389 30.288 103.254 C 0.0 **** 0.0
15344 C 54.9082 30.8635 103.4 C 0.0 **** 0.0
15345 C 55.1586 32.0728 104.073 C 0.0 **** 0.0
15346 C 54.0396 32.8329 104.589 C 0.0 **** 0.0
15347 C 56.1115 30.0638 103.01 C 0.0 **** 0.0
15348 C 55.97 28.6324 102.558 C 0.0 **** 0.0
15349 C 54.7074 28.077 102.394 C 0.0 **** 0.0
15350 C 53.4476 28.8998 102.66 C 0.0 **** 0.0
15351 C 54.5371 26.6931 101.99 C 0.0 **** 0.0
15352 C 55.6556 25.8752 102.099 C 0.0 **** 0.0
15353 C 56.8634 26.4202 102.669 C 0.0 **** 0.0
15354 C 57.1024 27.7906 102.626 C 0.0 **** 0.0
15355 C 58.3563 28.2764 103.005 C 0.0 **** 0.0
15356 C 59.3689 27.3695 103.315 C 0.0 **** 0.0
15357 C 59.1046 25.9814 103.34 C 0.0 **** 0.0
15358 C 57.7626 25.5734 103.306 C 0.0 **** 0.0
15359 C 60.2995 25.0032 103.499 C 0.0 **** 0.0
15360 C 61.5598 25.5861 102.834 C 0.0 **** 0.0
15361 C 61.8288 27.0043 103.331 C 0.0 **** 0.0
15362 C 60.727 27.8356 103.628 C 0.0 **** 0.0
15363 C 61.5007 25.5368 101.288 C 0.0 **** 0.0
15364 C 60.6426 24.3731 100.754 C 0.0 **** 0.0
15365 C 60.675 23.1511 101.616 C 0.0 **** 0.0
15366 C 59.9885 23.5419 102.982 C 0.0 **** 0.0
15367 C 60.9421 28.9965 104.395 C 0.0 **** 0.0
15368 C 62.2547 29.4587 104.683 C 0.0 **** 0.0
15369 C 63.3348 28.8467 103.989 C 0.0 **** 0.0
15370 C 63.1126 27.5485 103.34 C 0.0 **** 0.0
15371 C 64.6301 29.6098 103.821 C 0.0 **** 0.0
15372 C 64.787 30.9434 104.403 C 0.0 **** 0.0
15373 C 63.8335 31.3918 105.328 C 0.0 **** 0.0
15374 C 62.5806 30.6007 105.583 C 0.0 **** 0.0
15375 C 64.0307 32.6593 106.155 C 0.0 **** 0.0
15376 C 64.9305 33.7262 105.43 C 0.0 **** 0.0
15377 C 65.7977 33.1925 104.306 C 0.0 **** 0.0
15378 C 65.8268 31.8343 103.959 C 0.0 **** 0.0
15379 N 66.7273 31.385 103.073 N 0.0 **** 0.0
15380 C 67.5051 32.2348 102.322 C 0.0 **** 0.0
15381 C 67.4186 33.6229 102.548 C 0.0 **** 0.0
15382 C 66.6566 34.0644 103.635 C 0.0 **** 0.0
15383 C 66.5253 35.5376 103.915 C 0.0 **** 0.0
15384 C 67.6353 36.3861 103.364 C 0.0 **** 0.0
15385 C 67.958 35.9982 101.892 C 0.0 **** 0.0
15386 C 68.4363 34.5284 101.905 C 0.0 **** 0.0
15387 C 68.8828 34.0332 100.514 C 0.0 **** 0.0
15388 C 69.156 32.5489 100.5 C 0.0 **** 0.0
15389 C 68.4026 31.7105 101.381 C 0.0 **** 0.0
15390 C 68.5992 30.3249 101.279 C 0.0 **** 0.0
15391 C 69.4877 29.8119 100.377 C 0.0 **** 0.0
15392 C 70.1686 30.5478 99.4629 C 0.0 **** 0.0
15393 C 70.0645 31.9481 99.5447 C 0.0 **** 0.0
15394 C 54.2538 34.2022 105.225 C 0.0 **** 0.0
15395 C 53.711 35.406 104.447 C 0.0 **** 0.0
15396 C 51.5363 32.8321 105.279 C 0.0 **** 0.0
15397 C 56.5542 32.7061 104.086 C 0.0 **** 0.0
15398 C 51.1272 30.5874 103.452 C 0.0 **** 0.0
15399 C 53.227 26.1183 101.507 C 0.0 **** 0.0
15400 C 55.6432 24.4735 101.489 C 0.0 **** 0.0
15401 O 57.2848 24.5827 104.136 O 0.0 **** 0.0
15402 C 62.0949 22.6324 101.873 C 0.0 **** 0.0
15403 C 60.9126 24.049 99.2848 C 0.0 **** 0.0
15404 O 64.166 26.7504 102.882 O 0.0 **** 0.0
15405 O 59.7666 29.5148 104.97 O 0.0 **** 0.0
15406 O 61.8517 30.8893 106.53 O 0.0 **** 0.0
15407 O 65.5986 29.076 103.348 O 0.0 **** 0.0
15408 C 70.7297 32.8514 98.4829 C 0.0 **** 0.0
15409 C 71.0742 29.8303 98.4955 C 0.0 **** 0.0
15410 H 56.6251 30.5398 102.167 H 0.0 **** 0.0
15411 H 56.7517 30.0466 103.94 H 0.0 **** 0.0
15412 H 52.8165 28.3486 103.359 H 0.0 **** 0.0
15413 H 52.8857 29.1022 101.684 H 0.0 **** 0.0
15414 H 58.6084 29.3209 102.913 H 0.0 **** 0.0
15415 H 61.1266 26.4999 100.876 H 0.0 **** 0.0
15416 H 62.5723 25.5 100.9 H 0.0 **** 0.0
15417 H 59.5395 24.6736 100.739 H 0.0 **** 0.0
15418 H 60.0775 22.3566 101.15 H 0.0 **** 0.0
15419 H 60.1977 22.7664 103.739 H 0.0 **** 0.0
15420 H 58.88 23.4102 102.703 H 0.0 **** 0.0
15421 H 63.0768 33.124 106.289 H 0.0 **** 0.0
15422 H 64.4203 32.4575 107.189 H 0.0 **** 0.0
15423 H 65.6023 34.2052 106.116 H 0.0 **** 0.0
15424 H 64.254 34.4995 104.998 H 0.0 **** 0.0
15425 H 65.4895 35.7565 103.483 H 0.0 **** 0.0
15426 H 66.4702 35.7767 104.982 H 0.0 **** 0.0
15427 H 68.5373 36.2317 103.993 H 0.0 **** 0.0
15428 H 67.37 37.4569 103.428 H 0.0 **** 0.0
15429 H 68.8004 36.6577 101.514 H 0.0 **** 0.0
15430 H 67.0845 36.2008 101.223 H 0.0 **** 0.0
15431 H 69.3702 34.5393 102.529 H 0.0 **** 0.0
15432 H 68.0928 34.3139 99.7975 H 0.0 **** 0.0
15433 H 69.7463 34.6447 100.213 H 0.0 **** 0.0
15434 H 68.0636 29.6274 101.925 H 0.0 **** 0.0
15435 H 69.5348 28.7388 100.329 H 0.0 **** 0.0
15436 H 55.3669 34.4156 105.343 H 0.0 **** 0.0
15437 H 53.8674 34.2207 106.276 H 0.0 **** 0.0
15438 H 52.616 35.2986 104.207 H 0.0 **** 0.0
15439 H 54.254 35.5767 103.491 H 0.0 **** 0.0
15440 H 53.775 36.3072 105.133 H 0.0 **** 0.0
15441 H 50.6605 32.9485 104.588 H 0.0 **** 0.0
15442 H 51.6946 33.7954 105.781 H 0.0 **** 0.0
15443 H 51.2338 32.1082 106.082 H 0.0 **** 0.0
15444 H 56.529 33.6484 103.509 H 0.0 **** 0.0
15445 H 57.3097 32.1073 103.519 H 0.0 **** 0.0
15446 H 56.9088 32.839 105.134 H 0.0 **** 0.0
15447 H 51.0723 29.7546 102.726 H 0.0 **** 0.0
15448 H 50.6087 31.4203 102.954 H 0.0 **** 0.0
15449 H 50.562 30.3497 104.344 H 0.0 **** 0.0
15450 H 52.9476 25.2317 102.047 H 0.0 **** 0.0
15451 H 53.3915 25.8427 100.457 H 0.0 **** 0.0
15452 H 52.4201 26.8466 101.615 H 0.0 **** 0.0
15453 H 56.5919 23.938 101.695 H 0.0 **** 0.0
15454 H 55.5293 24.5427 100.382 H 0.0 **** 0.0
15455 H 54.8301 23.7845 101.909 H 0.0 **** 0.0
15456 H 57.9653 24.2421 104.797 H 0.0 **** 0.0
15457 H 62.6241 22.4965 100.896 H 0.0 **** 0.0
15458 H 61.9722 21.639 102.373 H 0.0 **** 0.0
15459 H 62.6845 23.3186 102.538 H 0.0 **** 0.0
15460 H 60.8907 24.9576 98.6797 H 0.0 **** 0.0
15461 H 60.1461 23.3293 98.9025 H 0.0 **** 0.0
15462 H 61.9214 23.6309 99.2403 H 0.0 **** 0.0
15463 H 65.0995 26.8465 103.31 H 0.0 **** 0.0
15464 H 59.8729 30.4105 105.439 H 0.0 **** 0.0
15465 H 69.9688 33.5311 98.1369 H 0.0 **** 0.0
15466 H 71.0449 32.2418 97.6575 H 0.0 **** 0.0
15467 H 71.5545 33.3895 98.9626 H 0.0 **** 0.0
15468 H 70.7653 30.0319 97.4717 H 0.0 **** 0.0
15469 H 71.0832 28.7125 98.6632 H 0.0 **** 0.0
15470 H 72.0497 30.268 98.6133 H 0.0 **** 0.0
15471 C 1.67826 38.9025 10.7209 C 0.0 **** 0.0
15472 C 1.94108 39.667 9.54078 C 0.0 **** 0.0
15473 C 2.94693 40.7096 9.55753 C 0.0 **** 0.0
15474 C 3.81212 40.7881 10.6756 C 0.0 **** 0.0
15475 C 3.7091 39.8417 11.7393 C 0.0 **** 0.0
15476 C 2.56412 38.9861 11.8242 C 0.0 **** 0.0
15477 C 4.73166 41.9908 10.8114 C 0.0 **** 0.0
15478 C 4.43713 43.1823 9.93496 C 0.0 **** 0.0
15479 C 3.49513 43.0275 8.87145 C 0.0 **** 0.0
15480 C 3.21436 41.6239 8.39308 C 0.0 **** 0.0
15481 C 2.84366 44.1331 8.29999 C 0.0 **** 0.0
15482 C 3.46781 45.4144 8.52534 C 0.0 **** 0.0
15483 C 4.66815 45.5726 9.3703 C 0.0 **** 0.0
15484 C 5.09995 44.4356 10.0808 C 0.0 **** 0.0
15485 C 6.26137 44.541 10.8672 C 0.0 **** 0.0
15486 C 7.08875 45.6744 10.8344 C 0.0 **** 0.0
15487 C 6.47715 46.8608 10.3953 C 0.0 **** 0.0
15488 C 5.27803 46.7972 9.63246 C 0.0 **** 0.0
15489 C 6.98367 48.2513 10.8142 C 0.0 **** 0.0
15490 C 8.26433 48.1153 11.7549 C 0.0 **** 0.0
15491 C 9.04048 46.8668 11.6203 C 0.0 **** 0.0
15492 C 8.44889 45.6712 11.2262 C 0.0 **** 0.0
15493 C 7.89805 48.3154 13.2329 C 0.0 **** 0.0
15494 C 6.46894 47.8739 13.6059 C 0.0 **** 0.0
15495 C 5.48132 48.7555 12.9761 C 0.0 **** 0.0
15496 C 5.8464 49.115 11.5088 C 0.0 **** 0.0
15497 C 9.2029 44.4637 11.2116 C 0.0 **** 0.0
15498 C 10.5864 44.4638 11.4534 C 0.0 **** 0.0
15499 C 11.1601 45.67 11.8796 C 0.0 **** 0.0
15500 C 10.3876 46.8495 12.0415 C 0.0 **** 0.0
15501 C 12.6731 45.7372 11.9575 C 0.0 **** 0.0
15502 C 13.4743 44.5083 12.1403 C 0.0 **** 0.0
15503 C 12.9192 43.3357 11.7051 C 0.0 **** 0.0
15504 C 11.4545 43.2678 11.2706 C 0.0 **** 0.0
15505 C 13.7648 42.119 11.5834 C 0.0 **** 0.0
15506 C 14.9345 42.0039 12.5782 C 0.0 **** 0.0
15507 C 15.4806 43.3316 13.0372 C 0.0 **** 0.0
15508 C 14.7643 44.5148 12.7625 C 0.0 **** 0.0
15509 N 15.2713 45.7056 13.139 N 0.0 **** 0.0
15510 C 16.3644 45.8306 13.9004 C 0.0 **** 0.0
15511 C 17.0344 44.6963 14.3932 C 0.0 **** 0.0
15512 C 16.6525 43.4443 13.8193 C 0.0 **** 0.0
15513 C 17.408 42.1556 14.1852 C 0.0 **** 0.0
15514 C 18.6487 42.4048 15.0775 C 0.0 **** 0.0
15515 C 18.5075 43.6097 15.9818 C 0.0 **** 0.0
15516 C 18.3013 44.8524 15.1696 C 0.0 **** 0.0
15517 C 18.33 46.1582 15.9259 C 0.0 **** 0.0
15518 C 18.045 47.3271 15.0088 C 0.0 **** 0.0
15519 C 16.9213 47.1131 14.1584 C 0.0 **** 0.0
15520 C 16.4211 48.1859 13.4433 C 0.0 **** 0.0
15521 C 17.0621 49.4453 13.4898 C 0.0 **** 0.0
15522 C 18.2113 49.6596 14.2646 C 0.0 **** 0.0
15523 C 18.7358 48.5699 15.0051 C 0.0 **** 0.0
15524 C 2.36527 38.0029 13.0236 C 0.0 **** 0.0
15525 C 1.8201 38.7625 14.205 C 0.0 **** 0.0
15526 C 0.320219 38.2571 10.8631 C 0.0 **** 0.0
15527 C 4.85333 39.7273 12.7677 C 0.0 **** 0.0
15528 C 1.31186 39.293 8.20921 C 0.0 **** 0.0
15529 C 1.47744 43.8514 7.70217 C 0.0 **** 0.0
15530 C 2.91057 46.5864 7.71994 C 0.0 **** 0.0
15531 O 4.90341 47.9301 8.87933 O 0.0 **** 0.0
15532 C 5.25005 50.0587 13.8377 C 0.0 **** 0.0
15533 C 6.28676 47.6447 15.139 C 0.0 **** 0.0
15534 O 10.9466 48.0689 12.4868 O 0.0 **** 0.0
15535 O 8.60249 43.3326 10.6763 O 0.0 **** 0.0
15536 O 11.0238 42.2346 10.7274 O 0.0 **** 0.0
15537 O 13.213 46.8438 11.8084 O 0.0 **** 0.0
15538 C 20.0128 48.7343 15.8086 C 0.0 **** 0.0
15539 C 18.7691 51.0704 14.3478 C 0.0 **** 0.0
15540 H 4.70217 42.289 11.8977 H 0.0 **** 0.0
15541 H 5.74994 41.6599 10.6469 H 0.0 **** 0.0
15542 H 4.11519 41.2974 7.83897 H 0.0 **** 0.0
15543 H 2.4272 41.5113 7.61518 H 0.0 **** 0.0
15544 H 6.50129 43.7426 11.4981 H 0.0 **** 0.0
15545 H 8.62202 47.8201 13.8656 H 0.0 **** 0.0
15546 H 7.99592 49.3886 13.3761 H 0.0 **** 0.0
15547 H 6.35622 46.8547 13.146 H 0.0 **** 0.0
15548 H 4.54797 48.202 12.98 H 0.0 **** 0.0
15549 H 6.29664 50.1695 11.4732 H 0.0 **** 0.0
15550 H 4.93206 49.0471 10.8911 H 0.0 **** 0.0
15551 H 13.0881 41.2274 11.6633 H 0.0 **** 0.0
15552 H 14.118 42.0684 10.51 H 0.0 **** 0.0
15553 H 15.7782 41.4777 12.0621 H 0.0 **** 0.0
15554 H 14.5961 41.3792 13.4034 H 0.0 **** 0.0
15555 H 16.6235 41.5336 14.7033 H 0.0 **** 0.0
15556 H 17.7217 41.5936 13.2754 H 0.0 **** 0.0
15557 H 19.6048 42.5103 14.4654 H 0.0 **** 0.0
15558 H 18.8106 41.5468 15.7203 H 0.0 **** 0.0
15559 H 19.4149 43.6374 16.6048 H 0.0 **** 0.0
15560 H 17.6301 43.417 16.6449 H 0.0 **** 0.0
15561 H 19.1555 44.9098 14.4321 H 0.0 **** 0.0
15562 H 17.5751 46.098 16.7032 H 0.0 **** 0.0
15563 H 19.3712 46.2226 16.3738 H 0.0 **** 0.0
15564 H 15.5387 48.0678 12.7983 H 0.0 **** 0.0
15565 H 16.5989 50.2438 12.8891 H 0.0 **** 0.0
15566 H 3.28387 37.5278 13.3936 H 0.0 **** 0.0
15567 H 1.62662 37.1822 12.7541 H 0.0 **** 0.0
15568 H 1.97017 38.1426 15.1355 H 0.0 **** 0.0
15569 H 0.747069 39.0328 13.9916 H 0.0 **** 0.0
15570 H 2.33925 39.7395 14.3317 H 0.0 **** 0.0
15571 H -0.421398 38.6981 10.1736 H 0.0 **** 0.0
15572 H -0.120301 38.4132 11.838 H 0.0 **** 0.0
15573 H 0.387278 37.179 10.6239 H 0.0 **** 0.0
15574 H 4.67738 38.9902 13.5571 H 0.0 **** 0.0
15575 H 4.89351 40.6583 13.3387 H 0.0 **** 0.0
15576 H 5.80955 39.5373 12.2029 H 0.0 **** 0.0
15577 H 2.05817 39.2471 7.38308 H 0.0 **** 0.0
15578 H 0.535015 40.052 7.99227 H 0.0 **** 0.0
15579 H 0.794902 38.3388 8.21456 H 0.0 **** 0.0
15580 H 1.64499 43.5402 6.68691 H 0.0 **** 0.0
15581 H 0.80769 44.732 7.77697 H 0.0 **** 0.0
15582 H 0.969137 43.0099 8.29709 H 0.0 **** 0.0
15583 H 2.58086 47.3773 8.42441 H 0.0 **** 0.0
15584 H 2.05659 46.3485 7.0847 H 0.0 **** 0.0
15585 H 3.65746 46.9807 7.00642 H 0.0 **** 0.0
15586 H 5.66277 48.5579 8.67028 H 0.0 **** 0.0
15587 H 4.74823 49.8301 14.7953 H 0.0 **** 0.0
15588 H 4.53304 50.7368 13.3301 H 0.0 **** 0.0
15589 H 6.17757 50.6317 13.9851 H 0.0 **** 0.0
15590 H 7.09022 46.9556 15.4599 H 0.0 **** 0.0
15591 H 5.28895 47.2374 15.4199 H 0.0 **** 0.0
15592 H 6.41244 48.6241 15.7059 H 0.0 **** 0.0
15593 H 11.6349 48.0085 13.2078 H 0.0 **** 0.0
15594 H 8.74892 42.4625 11.2614 H 0.0 **** 0.0
15595 H 19.8804 48.4772 16.8443 H 0.0 **** 0.0
15596 H 20.3407 49.7916 15.7997 H 0.0 **** 0.0
15597 H 20.9162 48.164 15.35 H 0.0 **** 0.0
15598 H 18.8568 51.4439 15.4032 H 0.0 **** 0.0
15599 H 18.1731 51.7249 13.7659 H 0.0 **** 0.0
15600 H 19.7682 51.0554 13.9723 H 0.0 **** 0.0
15601 C 79.4903 99.2456 61.4019 C 0.0 **** 0.0
15602 C 80.8869 99.1536 61.2114 C 0.0 **** 0.0
15603 C 81.3817 98.6241 59.978 C 0.0 **** 0.0
15604 C 80.4871 98.3223 58.9212 C 0.0 **** 0.0
15605 C 79.1148 98.6175 59.0393 C 0.0 **** 0.0
15606 C 78.647 99.174 60.2646 C 0.0 **** 0.0
15607 C 81.0216 97.903 57.5444 C 0.0 **** 0.0
15608 C 82.5263 97.8263 57.4096 C 0.0 **** 0.0
15609 C 83.3707 97.9125 58.5414 C 0.0 **** 0.0
15610 C 82.8672 98.431 59.8291 C 0.0 **** 0.0
15611 C 84.7685 97.6889 58.3629 C 0.0 **** 0.0
15612 C 85.329 97.4895 57.0474 C 0.0 **** 0.0
15613 C 84.4839 97.5753 55.92 C 0.0 **** 0.0
15614 C 83.0667 97.5664 56.1084 C 0.0 **** 0.0
15615 C 82.2292 97.4651 54.9926 C 0.0 **** 0.0
15616 C 82.7185 97.2468 53.7167 C 0.0 **** 0.0
15617 C 84.117 97.0657 53.5579 C 0.0 **** 0.0
15618 C 84.9763 97.4597 54.632 C 0.0 **** 0.0
15619 C 84.6853 96.4955 52.2274 C 0.0 **** 0.0
15620 C 83.557 95.8284 51.4332 C 0.0 **** 0.0
15621 C 82.2661 96.6716 51.3938 C 0.0 **** 0.0
15622 C 81.8656 97.301 52.5538 C 0.0 **** 0.0
15623 C 83.2843 94.2982 51.7251 C 0.0 **** 0.0
15624 C 83.8202 93.8573 53.1352 C 0.0 **** 0.0
15625 C 85.2352 94.2591 53.3494 C 0.0 **** 0.0
15626 C 85.7639 95.4298 52.4684 C 0.0 **** 0.0
15627 C 80.6735 98.0611 52.5188 C 0.0 **** 0.0
15628 C 79.7833 97.9666 51.4184 C 0.0 **** 0.0
15629 C 80.2061 97.3332 50.2248 C 0.0 **** 0.0
15630 C 81.4545 96.6108 50.2392 C 0.0 **** 0.0
15631 C 79.3951 97.547 48.9797 C 0.0 **** 0.0
15632 C 78.0718 98.2682 49.0274 C 0.0 **** 0.0
15633 C 77.5605 98.5992 50.3173 C 0.0 **** 0.0
15634 C 78.3831 98.3578 51.5254 C 0.0 **** 0.0
15635 C 76.2306 99.242 50.5447 C 0.0 **** 0.0
15636 C 75.3448 99.3952 49.291 C 0.0 **** 0.0
15637 C 75.9493 99.0014 47.9536 C 0.0 **** 0.0
15638 C 77.2502 98.4665 47.8528 C 0.0 **** 0.0
15639 N 77.7215 98.0699 46.6511 N 0.0 **** 0.0
15640 C 77.0285 98.1204 45.5067 C 0.0 **** 0.0
15641 C 75.682 98.5163 45.5261 C 0.0 **** 0.0
15642 C 75.1434 99.0024 46.7477 C 0.0 **** 0.0
15643 C 73.6576 99.3319 46.8458 C 0.0 **** 0.0
15644 C 73.0154 99.6045 45.4785 C 0.0 **** 0.0
15645 C 73.4605 98.6408 44.3464 C 0.0 **** 0.0
15646 C 74.973 98.7111 44.1963 C 0.0 **** 0.0
15647 C 75.4289 97.6739 43.0884 C 0.0 **** 0.0
15648 C 76.9452 97.4556 43.0491 C 0.0 **** 0.0
15649 C 77.6916 97.6761 44.2677 C 0.0 **** 0.0
15650 C 79.0798 97.3316 44.306 C 0.0 **** 0.0
15651 C 79.6876 96.7234 43.2104 C 0.0 **** 0.0
15652 C 79.0045 96.3445 42.0844 C 0.0 **** 0.0
15653 C 77.5968 96.7613 41.9812 C 0.0 **** 0.0
15654 C 77.2739 99.7116 60.3355 C 0.0 **** 0.0
15655 C 76.2272 98.6954 60.684 C 0.0 **** 0.0
15656 C 78.9205 99.4497 62.7901 C 0.0 **** 0.0
15657 C 78.1916 98.3035 57.8469 C 0.0 **** 0.0
15658 C 81.789 99.7075 62.2856 C 0.0 **** 0.0
15659 C 85.6794 97.7864 59.5332 C 0.0 **** 0.0
15660 C 86.8174 97.0945 56.9596 C 0.0 **** 0.0
15661 O 86.2796 97.9133 54.374 O 0.0 **** 0.0
15662 C 86.2398 93.0867 53.3732 C 0.0 **** 0.0
15663 C 83.4572 92.3603 53.4123 C 0.0 **** 0.0
15664 O 81.8651 95.796 49.1724 O 0.0 **** 0.0
15665 O 80.4485 99.0446 53.5084 O 0.0 **** 0.0
15666 O 77.8575 98.3809 52.6387 O 0.0 **** 0.0
15667 O 79.85 97.2494 47.8695 O 0.0 **** 0.0
15668 C 76.7711 96.3767 40.7402 C 0.0 **** 0.0
15669 C 79.6738 95.3919 41.0922 C 0.0 **** 0.0
15670 H 80.5932 96.9541 57.2647 H 0.0 **** 0.0
15671 H 80.7364 98.7275 56.8229 H 0.0 **** 0.0
15672 H 83.3322 99.4305 59.9054 H 0.0 **** 0.0
15673 H 83.1851 97.8227 60.6637 H 0.0 **** 0.0
15674 H 81.1536 97.4755 55.0748 H 0.0 **** 0.0
15675 H 82.1389 94.0873 51.7365 H 0.0 **** 0.0
15676 H 83.838 93.725 50.9531 H 0.0 **** 0.0
15677 H 83.2117 94.488 53.8252 H 0.0 **** 0.0
15678 H 85.2999 94.6564 54.3985 H 0.0 **** 0.0
15679 H 86.0176 94.9762 51.4871 H 0.0 **** 0.0
15680 H 86.7056 95.8446 52.8762 H 0.0 **** 0.0
15681 H 75.6514 98.6875 51.3115 H 0.0 **** 0.0
15682 H 76.3884 100.285 50.9624 H 0.0 **** 0.0
15683 H 74.9937 100.456 49.1982 H 0.0 **** 0.0
15684 H 74.4511 98.7487 49.4478 H 0.0 **** 0.0
15685 H 73.15 98.4916 47.3207 H 0.0 **** 0.0
15686 H 73.4976 100.199 47.5272 H 0.0 **** 0.0
15687 H 73.3609 100.607 45.2592 H 0.0 **** 0.0
15688 H 71.9086 99.608 45.5895 H 0.0 **** 0.0
15689 H 72.9379 98.9226 43.4292 H 0.0 **** 0.0
15690 H 73.1618 97.5983 44.6174 H 0.0 **** 0.0
15691 H 75.2389 99.724 43.8145 H 0.0 **** 0.0
15692 H 74.9407 96.6498 43.2437 H 0.0 **** 0.0
15693 H 75.0815 98.0815 42.133 H 0.0 **** 0.0
15694 H 79.6899 97.5562 45.1574 H 0.0 **** 0.0
15695 H 80.7112 96.4445 43.2776 H 0.0 **** 0.0
15696 H 77.0912 100.322 59.4484 H 0.0 **** 0.0
15697 H 77.1805 100.576 61.0265 H 0.0 **** 0.0
15698 H 76.3082 98.4164 61.7583 H 0.0 **** 0.0
15699 H 76.4308 97.8193 60.0382 H 0.0 **** 0.0
15700 H 75.2234 99.102 60.5524 H 0.0 **** 0.0
15701 H 78.0894 98.7546 62.9536 H 0.0 **** 0.0
15702 H 78.4959 100.483 62.8489 H 0.0 **** 0.0
15703 H 79.6536 99.2223 63.6056 H 0.0 **** 0.0
15704 H 78.2599 97.2622 57.5396 H 0.0 **** 0.0
15705 H 78.4898 98.886 57.0077 H 0.0 **** 0.0
15706 H 77.1093 98.4438 57.9541 H 0.0 **** 0.0
15707 H 81.488 100.792 62.5429 H 0.0 **** 0.0
15708 H 82.8134 99.7646 61.9673 H 0.0 **** 0.0
15709 H 81.8301 99.0382 63.1993 H 0.0 **** 0.0
15710 H 86.6822 98.0746 59.18 H 0.0 **** 0.0
15711 H 85.6644 96.8218 60.0807 H 0.0 **** 0.0
15712 H 85.4211 98.5618 60.1929 H 0.0 **** 0.0
15713 H 87.0745 96.4774 56.0368 H 0.0 **** 0.0
15714 H 87.0521 96.4308 57.8271 H 0.0 **** 0.0
15715 H 87.4589 98.0116 56.9044 H 0.0 **** 0.0
15716 H 86.4634 98.0631 53.357 H 0.0 **** 0.0
15717 H 86.0561 92.441 54.2546 H 0.0 **** 0.0
15718 H 87.2591 93.475 53.54 H 0.0 **** 0.0
15719 H 86.12 92.5375 52.3918 H 0.0 **** 0.0
15720 H 82.332 92.2321 53.464 H 0.0 **** 0.0
15721 H 83.7933 92.076 54.4158 H 0.0 **** 0.0
15722 H 83.8648 91.6651 52.6847 H 0.0 **** 0.0
15723 H 81.1922 95.4657 48.4655 H 0.0 **** 0.0
15724 H 79.9809 99.8698 53.1207 H 0.0 **** 0.0
15725 H 77.3335 95.7482 40.0461 H 0.0 **** 0.0
15726 H 76.4076 97.2781 40.2684 H 0.0 **** 0.0
15727 H 75.8529 95.7608 41.025 H 0.0 **** 0.0
15728 H 79.0813 94.4584 41.0341 H 0.0 **** 0.0
15729 H 80.6533 95.1055 41.43 H 0.0 **** 0.0
15730 H 79.6812 95.8304 40.0863 H 0.0 **** 0.0
15731 C 0.0907924 58.3688 94.9116 C 0.0 **** 0.0
15732 C 0.414806 57.9037 93.609 C 0.0 **** 0.0
15733 C 1.65655 58.248 93.0317 C 0.0 **** 0.0
15734 C 2.57874 59.0068 93.7755 C 0.0 **** 0.0
15735 C 2.27745 59.5054 95.0543 C 0.0 **** 0.0
15736 C 0.967867 59.2753 95.5601 C 0.0 **** 0.0
15737 C 3.9397 59.2701 93.2128 C 0.0 **** 0.0
15738 C 4.3285 58.7058 91.9055 C 0.0 **** 0.0
15739 C 3.44383 57.9788 91.1107 C 0.0 **** 0.0
15740 C 2.01768 57.7145 91.6833 C 0.0 **** 0.0
15741 C 3.83429 57.4502 89.8678 C 0.0 **** 0.0
15742 C 5.21602 57.4314 89.5349 C 0.0 **** 0.0
15743 C 6.13877 58.2373 90.322 C 0.0 **** 0.0
15744 C 5.64648 58.9889 91.4165 C 0.0 **** 0.0
15745 C 6.48717 59.9712 92.0148 C 0.0 **** 0.0
15746 C 7.86797 60.0815 91.6606 C 0.0 **** 0.0
15747 C 8.23247 59.465 90.4647 C 0.0 **** 0.0
15748 C 7.49807 58.3989 89.9419 C 0.0 **** 0.0
15749 C 9.47415 59.9381 89.6986 C 0.0 **** 0.0
15750 C 10.3112 61.0137 90.4236 C 0.0 **** 0.0
15751 C 10.0694 61.0829 91.9224 C 0.0 **** 0.0
15752 C 8.84021 60.737 92.485 C 0.0 **** 0.0
15753 C 10.1476 62.4041 89.7896 C 0.0 **** 0.0
15754 C 8.68624 62.616 89.3229 C 0.0 **** 0.0
15755 C 8.24348 61.6729 88.2552 C 0.0 **** 0.0
15756 C 9.09171 60.3685 88.2393 C 0.0 **** 0.0
15757 C 8.68317 60.9486 93.8782 C 0.0 **** 0.0
15758 C 9.64185 61.7266 94.6033 C 0.0 **** 0.0
15759 C 10.8799 62.0148 94.0164 C 0.0 **** 0.0
15760 C 11.1032 61.6217 92.6875 C 0.0 **** 0.0
15761 C 11.9439 62.547 94.9032 C 0.0 **** 0.0
15762 C 11.6244 63.2929 96.1287 C 0.0 **** 0.0
15763 C 10.2722 63.244 96.5773 C 0.0 **** 0.0
15764 C 9.32333 62.3469 95.9233 C 0.0 **** 0.0
15765 C 9.81417 64.0297 97.7907 C 0.0 **** 0.0
15766 C 10.6586 65.2797 97.9736 C 0.0 **** 0.0
15767 C 12.1345 65.0652 97.7484 C 0.0 **** 0.0
15768 C 12.5427 64.1644 96.7468 C 0.0 **** 0.0
15769 N 13.8428 64.0478 96.4417 N 0.0 **** 0.0
15770 C 14.834 64.7797 97.0556 C 0.0 **** 0.0
15771 C 14.4471 65.7141 98.0298 C 0.0 **** 0.0
15772 C 13.0987 65.8384 98.4225 C 0.0 **** 0.0
15773 C 12.6827 66.7529 99.5573 C 0.0 **** 0.0
15774 C 13.8573 67.2505 100.359 C 0.0 **** 0.0
15775 C 14.9983 67.691 99.5086 C 0.0 **** 0.0
15776 C 15.5445 66.5018 98.7369 C 0.0 **** 0.0
15777 C 16.5342 67.0486 97.6651 C 0.0 **** 0.0
15778 C 17.0975 65.8342 96.9166 C 0.0 **** 0.0
15779 C 16.1901 64.7678 96.6289 C 0.0 **** 0.0
15780 C 16.6797 63.6861 95.809 C 0.0 **** 0.0
15781 C 17.9367 63.7762 95.2174 C 0.0 **** 0.0
15782 C 18.7226 64.9049 95.3544 C 0.0 **** 0.0
15783 C 18.3147 65.9554 96.213 C 0.0 **** 0.0
15784 C 0.446513 60.0775 96.753 C 0.0 **** 0.0
15785 C -0.416959 61.231 96.3077 C 0.0 **** 0.0
15786 C -1.12983 57.8325 95.638 C 0.0 **** 0.0
15787 C 3.25326 60.3712 95.8723 C 0.0 **** 0.0
15788 C -0.616727 57.0502 92.8105 C 0.0 **** 0.0
15789 C 2.83385 56.8336 88.9224 C 0.0 **** 0.0
15790 C 5.74115 56.6388 88.304 C 0.0 **** 0.0
15791 O 8.16028 57.4351 89.1152 O 0.0 **** 0.0
15792 C 8.21906 62.2434 86.8063 C 0.0 **** 0.0
15793 C 8.41785 64.1013 88.9755 C 0.0 **** 0.0
15794 O 12.3344 61.7017 92.081 O 0.0 **** 0.0
15795 O 7.76841 60.2578 94.6666 O 0.0 **** 0.0
15796 O 8.27875 62.1103 96.4655 O 0.0 **** 0.0
15797 O 13.0996 62.3935 94.5943 O 0.0 **** 0.0
15798 C 19.2199 67.1448 96.4818 C 0.0 **** 0.0
15799 C 20.0299 65.0661 94.5777 C 0.0 **** 0.0
15800 H 4.00027 60.361 93.0712 H 0.0 **** 0.0
15801 H 4.67378 58.9583 93.969 H 0.0 **** 0.0
15802 H 1.92405 56.6028 91.7043 H 0.0 **** 0.0
15803 H 1.24691 58.1309 90.9922 H 0.0 **** 0.0
15804 H 6.19816 60.5889 92.8492 H 0.0 **** 0.0
15805 H 10.5185 63.2347 90.5124 H 0.0 **** 0.0
15806 H 10.7969 62.5085 88.8716 H 0.0 **** 0.0
15807 H 8.07073 62.4035 90.2093 H 0.0 **** 0.0
15808 H 7.1687 61.4316 88.4582 H 0.0 **** 0.0
15809 H 10.003 60.5543 87.6586 H 0.0 **** 0.0
15810 H 8.57057 59.5617 87.682 H 0.0 **** 0.0
15811 H 8.74708 64.3272 97.7057 H 0.0 **** 0.0
15812 H 9.92537 63.3236 98.66 H 0.0 **** 0.0
15813 H 10.3894 65.7103 98.972 H 0.0 **** 0.0
15814 H 10.3245 66.0398 97.1856 H 0.0 **** 0.0
15815 H 12.188 67.6769 99.1656 H 0.0 **** 0.0
15816 H 12.0193 66.2486 100.254 H 0.0 **** 0.0
15817 H 14.2308 66.5212 101.096 H 0.0 **** 0.0
15818 H 13.5309 68.1551 100.934 H 0.0 **** 0.0
15819 H 15.8065 68.0641 100.151 H 0.0 **** 0.0
15820 H 14.6521 68.5466 98.8882 H 0.0 **** 0.0
15821 H 16.0746 65.8882 99.4645 H 0.0 **** 0.0
15822 H 16.0621 67.7965 96.9614 H 0.0 **** 0.0
15823 H 17.338 67.6075 98.1793 H 0.0 **** 0.0
15824 H 16.0581 62.8256 95.5325 H 0.0 **** 0.0
15825 H 18.2342 62.9826 94.5331 H 0.0 **** 0.0
15826 H 1.20883 60.4248 97.4581 H 0.0 **** 0.0
15827 H -0.126406 59.3909 97.4322 H 0.0 **** 0.0
15828 H -1.15116 60.9279 95.5431 H 0.0 **** 0.0
15829 H 0.267299 61.9905 95.8453 H 0.0 **** 0.0
15830 H -1.04849 61.69 97.1587 H 0.0 **** 0.0
15831 H -1.67908 57.0527 95.1005 H 0.0 **** 0.0
15832 H -1.80922 58.5844 95.962 H 0.0 **** 0.0
15833 H -0.795812 57.3647 96.6031 H 0.0 **** 0.0
15834 H 4.21348 60.6291 95.3778 H 0.0 **** 0.0
15835 H 3.48353 59.8547 96.8335 H 0.0 **** 0.0
15836 H 2.82905 61.3326 96.1839 H 0.0 **** 0.0
15837 H -1.53784 57.5989 92.7911 H 0.0 **** 0.0
15838 H -0.782925 56.0511 93.2906 H 0.0 **** 0.0
15839 H -0.39449 56.8436 91.7195 H 0.0 **** 0.0
15840 H 2.92936 55.7396 88.9048 H 0.0 **** 0.0
15841 H 3.03116 57.1564 87.9167 H 0.0 **** 0.0
15842 H 1.74896 57.1163 89.1541 H 0.0 **** 0.0
15843 H 6.30894 57.3437 87.6898 H 0.0 **** 0.0
15844 H 4.99965 56.2126 87.6563 H 0.0 **** 0.0
15845 H 6.46988 55.8586 88.6794 H 0.0 **** 0.0
15846 H 9.14812 57.5545 88.897 H 0.0 **** 0.0
15847 H 7.44212 63.0278 86.6901 H 0.0 **** 0.0
15848 H 8.01515 61.418 86.0746 H 0.0 **** 0.0
15849 H 9.21267 62.7322 86.5018 H 0.0 **** 0.0
15850 H 8.58479 64.7203 89.9292 H 0.0 **** 0.0
15851 H 7.30039 64.2017 88.7175 H 0.0 **** 0.0
15852 H 9.0583 64.5357 88.1676 H 0.0 **** 0.0
15853 H 12.8721 62.4691 92.363 H 0.0 **** 0.0
15854 H 7.67248 59.3303 94.3734 H 0.0 **** 0.0
15855 H 18.6063 68.0328 96.3577 H 0.0 **** 0.0
15856 H 20.1628 67.1529 95.8724 H 0.0 **** 0.0
15857 H 19.5349 67.1255 97.5876 H 0.0 **** 0.0
15858 H 19.9911 65.9763 93.9497 H 0.0 **** 0.0
15859 H 20.1842 64.2488 93.9035 H 0.0 **** 0.0
15860 H 20.8258 65.1009 95.3306 H 0.0 **** 0.0
15861 C 30.2263 76.64 75.9439 C 0.0 **** 0.0
15862 C 29.0426 75.9434 75.6541 C 0.0 **** 0.0
15863 C 28.943 74.5596 75.9271 C 0.0 **** 0.0
15864 C 29.9971 73.9447 76.6211 C 0.0 **** 0.0
15865 C 31.0888 74.6857 77.1016 C 0.0 **** 0.0
15866 C 31.1887 76.0813 76.8069 C 0.0 **** 0.0
15867 C 29.9408 72.4684 76.9071 C 0.0 **** 0.0
15868 C 28.9714 71.6408 76.1354 C 0.0 **** 0.0
15869 C 27.861 72.1951 75.49 C 0.0 **** 0.0
15870 C 27.7576 73.7139 75.5228 C 0.0 **** 0.0
15871 C 27.0438 71.3952 74.6591 C 0.0 **** 0.0
15872 C 27.3644 70.0606 74.4465 C 0.0 **** 0.0
15873 C 28.403 69.4254 75.2348 C 0.0 **** 0.0
15874 C 29.1484 70.2428 76.1329 C 0.0 **** 0.0
15875 C 30.0234 69.6559 76.9928 C 0.0 **** 0.0
15876 C 30.492 68.3926 76.8979 C 0.0 **** 0.0
15877 C 29.9133 67.5325 75.9519 C 0.0 **** 0.0
15878 C 28.7595 68.0133 75.203 C 0.0 **** 0.0
15879 C 30.4633 66.1223 75.7898 C 0.0 **** 0.0
15880 C 31.5661 65.6933 76.7107 C 0.0 **** 0.0
15881 C 31.74 66.5692 77.9175 C 0.0 **** 0.0
15882 C 31.3933 67.9261 77.8854 C 0.0 **** 0.0
15883 C 32.8996 65.4308 76.0476 C 0.0 **** 0.0
15884 C 33.0902 66.3053 74.8135 C 0.0 **** 0.0
15885 C 32.153 65.9438 73.7441 C 0.0 **** 0.0
15886 C 30.7248 65.6732 74.3302 C 0.0 **** 0.0
15887 C 32.0778 68.8009 78.8065 C 0.0 **** 0.0
15888 C 32.6063 68.2823 80.0003 C 0.0 **** 0.0
15889 C 32.5632 66.8844 80.2439 C 0.0 **** 0.0
15890 C 32.2733 66.0423 79.1187 C 0.0 **** 0.0
15891 C 32.8072 66.3488 81.6228 C 0.0 **** 0.0
15892 C 33.1787 67.2775 82.7359 C 0.0 **** 0.0
15893 C 33.0274 68.6442 82.5349 C 0.0 **** 0.0
15894 C 32.7659 69.1956 81.1651 C 0.0 **** 0.0
15895 C 32.7269 69.5037 83.7752 C 0.0 **** 0.0
15896 C 33.7832 69.1901 84.7938 C 0.0 **** 0.0
15897 C 33.8462 67.6781 85.0296 C 0.0 **** 0.0
15898 C 33.6148 66.782 83.9697 C 0.0 **** 0.0
15899 N 33.8101 65.4481 84.1558 N 0.0 **** 0.0
15900 C 34.3102 64.9525 85.2967 C 0.0 **** 0.0
15901 C 34.536 65.8226 86.3881 C 0.0 **** 0.0
15902 C 34.2441 67.1843 86.2777 C 0.0 **** 0.0
15903 C 34.5561 68.1512 87.4129 C 0.0 **** 0.0
15904 C 35.1811 67.5724 88.7012 C 0.0 **** 0.0
15905 C 35.99 66.327 88.3989 C 0.0 **** 0.0
15906 C 35.1188 65.2856 87.6889 C 0.0 **** 0.0
15907 C 35.8865 64.0038 87.5002 C 0.0 **** 0.0
15908 C 35.2179 63.0159 86.5592 C 0.0 **** 0.0
15909 C 34.5941 63.56 85.3942 C 0.0 **** 0.0
15910 C 34.2093 62.6901 84.3608 C 0.0 **** 0.0
15911 C 34.3437 61.318 84.5316 C 0.0 **** 0.0
15912 C 34.818 60.7624 85.7341 C 0.0 **** 0.0
15913 C 35.3004 61.6001 86.7707 C 0.0 **** 0.0
15914 C 32.2387 76.9842 77.4208 C 0.0 **** 0.0
15915 C 33.5136 77.1013 76.5935 C 0.0 **** 0.0
15916 C 30.437 78.033 75.3519 C 0.0 **** 0.0
15917 C 32.1604 74.0048 77.9145 C 0.0 **** 0.0
15918 C 27.8096 76.7421 75.211 C 0.0 **** 0.0
15919 C 25.7729 71.989 74.1288 C 0.0 **** 0.0
15920 C 26.4716 69.2576 73.5284 C 0.0 **** 0.0
15921 O 27.9101 67.1042 74.5888 O 0.0 **** 0.0
15922 C 32.5845 64.7972 72.7834 C 0.0 **** 0.0
15923 C 34.5539 66.432 74.3618 C 0.0 **** 0.0
15924 O 32.6265 64.6856 79.1371 O 0.0 **** 0.0
15925 O 32.4813 70.0833 78.3493 O 0.0 **** 0.0
15926 O 32.7168 70.4087 81.0303 O 0.0 **** 0.0
15927 O 32.679 65.1754 81.8729 O 0.0 **** 0.0
15928 C 35.9147 61.0566 88.0667 C 0.0 **** 0.0
15929 C 34.7113 59.2454 85.8771 C 0.0 **** 0.0
15930 H 30.9688 72.0492 76.6221 H 0.0 **** 0.0
15931 H 29.7902 72.3219 77.9972 H 0.0 **** 0.0
15932 H 26.8736 73.9636 76.1264 H 0.0 **** 0.0
15933 H 27.493 73.9948 74.4841 H 0.0 **** 0.0
15934 H 30.2205 70.2058 77.8506 H 0.0 **** 0.0
15935 H 33.7759 65.5998 76.7627 H 0.0 **** 0.0
15936 H 32.9926 64.3518 75.8121 H 0.0 **** 0.0
15937 H 32.8257 67.3159 75.1581 H 0.0 **** 0.0
15938 H 32.088 66.8578 73.0592 H 0.0 **** 0.0
15939 H 30.5234 64.5977 74.3206 H 0.0 **** 0.0
15940 H 30.0162 66.1498 73.6862 H 0.0 **** 0.0
15941 H 32.8316 70.5735 83.5584 H 0.0 **** 0.0
15942 H 31.7307 69.1635 84.1356 H 0.0 **** 0.0
15943 H 33.5571 69.7481 85.7192 H 0.0 **** 0.0
15944 H 34.8008 69.5408 84.4507 H 0.0 **** 0.0
15945 H 35.3172 68.8538 87.0203 H 0.0 **** 0.0
15946 H 33.6022 68.6204 87.7309 H 0.0 **** 0.0
15947 H 34.3527 67.317 89.3818 H 0.0 **** 0.0
15948 H 35.7894 68.308 89.2219 H 0.0 **** 0.0
15949 H 36.3506 65.8897 89.3688 H 0.0 **** 0.0
15950 H 36.8325 66.6444 87.7829 H 0.0 **** 0.0
15951 H 34.3282 65.0379 88.4279 H 0.0 **** 0.0
15952 H 36.9141 64.18 87.1136 H 0.0 **** 0.0
15953 H 36.0957 63.6151 88.5084 H 0.0 **** 0.0
15954 H 33.7485 63.0121 83.4217 H 0.0 **** 0.0
15955 H 34.0347 60.6867 83.7242 H 0.0 **** 0.0
15956 H 32.4722 76.6356 78.4434 H 0.0 **** 0.0
15957 H 31.8846 78.026 77.6884 H 0.0 **** 0.0
15958 H 33.3205 77.2391 75.548 H 0.0 **** 0.0
15959 H 34.0597 76.1255 76.6867 H 0.0 **** 0.0
15960 H 34.0817 78.0154 76.8944 H 0.0 **** 0.0
15961 H 30.4031 77.9032 74.2277 H 0.0 **** 0.0
15962 H 31.4384 78.4617 75.5364 H 0.0 **** 0.0
15963 H 29.6439 78.7516 75.6983 H 0.0 **** 0.0
15964 H 32.9898 74.6458 78.162 H 0.0 **** 0.0
15965 H 32.6493 73.2104 77.3303 H 0.0 **** 0.0
15966 H 31.7256 73.549 78.8239 H 0.0 **** 0.0
15967 H 27.5211 77.4696 76.0196 H 0.0 **** 0.0
15968 H 26.9298 76.1499 75.1141 H 0.0 **** 0.0
15969 H 28.067 77.3529 74.2981 H 0.0 **** 0.0
15970 H 24.9384 71.2701 74.2777 H 0.0 **** 0.0
15971 H 25.8713 72.2359 73.0526 H 0.0 **** 0.0
15972 H 25.3736 72.8313 74.7361 H 0.0 **** 0.0
15973 H 27.1261 68.6033 72.8987 H 0.0 **** 0.0
15974 H 25.8767 69.8543 72.7856 H 0.0 **** 0.0
15975 H 25.7298 68.662 74.111 H 0.0 **** 0.0
15976 H 28.0414 66.1151 74.8382 H 0.0 **** 0.0
15977 H 33.4853 65.0587 72.1558 H 0.0 **** 0.0
15978 H 31.7313 64.5952 72.0683 H 0.0 **** 0.0
15979 H 32.6991 63.7889 73.3392 H 0.0 **** 0.0
15980 H 35.2011 66.9418 75.1631 H 0.0 **** 0.0
15981 H 34.5711 67.0382 73.4428 H 0.0 **** 0.0
15982 H 34.9978 65.4472 74.1583 H 0.0 **** 0.0
15983 H 33.436 64.4088 79.6576 H 0.0 **** 0.0
15984 H 33.3231 70.458 78.7557 H 0.0 **** 0.0
15985 H 36.9787 61.4253 88.1448 H 0.0 **** 0.0
15986 H 36.0101 59.9491 88.0882 H 0.0 **** 0.0
15987 H 35.3994 61.4394 89.0027 H 0.0 **** 0.0
15988 H 35.7213 58.7668 85.8493 H 0.0 **** 0.0
15989 H 34.1427 58.7995 85.0617 H 0.0 **** 0.0
15990 H 34.1734 59.0453 86.8303 H 0.0 **** 0.0
15991 C 12.2837 102.687 2.52104 C 0.0 **** 0.0
15992 C 11.2774 102.833 3.52204 C 0.0 **** 0.0
15993 C 10.4837 101.745 3.97921 C 0.0 **** 0.0
15994 C 10.9246 100.456 3.6483 C 0.0 **** 0.0
15995 C 12.1123 100.272 2.91869 C 0.0 **** 0.0
15996 C 12.7576 101.387 2.27243 C 0.0 **** 0.0
15997 C 9.95113 99.3166 3.74064 C 0.0 **** 0.0
15998 C 8.53707 99.5737 4.22855 C 0.0 **** 0.0
15999 C 8.22199 100.778 4.8415 C 0.0 **** 0.0
16000 C 9.22928 101.949 4.83145 C 0.0 **** 0.0
16001 C 6.98794 100.952 5.49799 C 0.0 **** 0.0
16002 C 5.97342 100.054 5.2108 C 0.0 **** 0.0
16003 C 6.23559 98.7954 4.59735 C 0.0 **** 0.0
16004 C 7.53638 98.5817 4.06314 C 0.0 **** 0.0
16005 C 7.74314 97.3328 3.38797 C 0.0 **** 0.0
16006 C 6.73657 96.3954 3.09735 C 0.0 **** 0.0
16007 C 5.4626 96.6684 3.61501 C 0.0 **** 0.0
16008 C 5.24646 97.7965 4.45432 C 0.0 **** 0.0
16009 C 4.34443 95.7381 3.29931 C 0.0 **** 0.0
16010 C 4.78814 94.2972 3.48345 C 0.0 **** 0.0
16011 C 6.09568 94.0495 2.70974 C 0.0 **** 0.0
16012 C 6.9737 95.1321 2.45481 C 0.0 **** 0.0
16013 C 3.55183 93.3225 3.23081 C 0.0 **** 0.0
16014 C 3.10984 93.456 1.74034 C 0.0 **** 0.0
16015 C 2.65941 94.8325 1.44673 C 0.0 **** 0.0
16016 C 3.66036 95.8905 1.90209 C 0.0 **** 0.0
16017 C 8.10365 94.9194 1.58251 C 0.0 **** 0.0
16018 C 8.39171 93.6295 1.1247 C 0.0 **** 0.0
16019 C 7.5484 92.5204 1.45124 C 0.0 **** 0.0
16020 C 6.46463 92.7212 2.35619 C 0.0 **** 0.0
16021 C 7.68389 91.2845 0.665596 C 0.0 **** 0.0
16022 C 8.80882 91.082 -0.26984 C 0.0 **** 0.0
16023 C 9.81358 92.0477 -0.334171 C 0.0 **** 0.0
16024 C 9.64855 93.3583 0.365908 C 0.0 **** 0.0
16025 C 11.0626 91.7562 -1.05818 C 0.0 **** 0.0
16026 C 10.7099 91.0108 -2.3626 C 0.0 **** 0.0
16027 C 9.94051 89.7776 -2.0169 C 0.0 **** 0.0
16028 C 8.92499 89.8982 -1.07321 C 0.0 **** 0.0
16029 N 8.03506 88.8688 -0.952467 N 0.0 **** 0.0
16030 C 8.13563 87.6564 -1.58152 C 0.0 **** 0.0
16031 C 9.22141 87.4674 -2.43855 C 0.0 **** 0.0
16032 C 10.1243 88.5335 -2.67081 C 0.0 **** 0.0
16033 C 11.1524 88.432 -3.82722 C 0.0 **** 0.0
16034 C 11.501 87.0148 -4.21373 C 0.0 **** 0.0
16035 C 10.2605 86.115 -4.30545 C 0.0 **** 0.0
16036 C 9.43885 86.0805 -2.99972 C 0.0 **** 0.0
16037 C 8.11422 85.4004 -3.24811 C 0.0 **** 0.0
16038 C 7.22126 85.4234 -2.03806 C 0.0 **** 0.0
16039 C 7.20734 86.6014 -1.28467 C 0.0 **** 0.0
16040 C 6.26514 86.7363 -0.257016 C 0.0 **** 0.0
16041 C 5.43031 85.7253 0.118259 C 0.0 **** 0.0
16042 C 5.47375 84.5002 -0.559763 C 0.0 **** 0.0
16043 C 6.3789 84.3513 -1.64521 C 0.0 **** 0.0
16044 C 13.9317 101.05 1.32421 C 0.0 **** 0.0
16045 C 13.4117 100.765 -0.0982053 C 0.0 **** 0.0
16046 C 12.8682 103.854 1.81258 C 0.0 **** 0.0
16047 C 12.5166 98.8249 2.62989 C 0.0 **** 0.0
16048 C 11.0735 104.236 4.17302 C 0.0 **** 0.0
16049 C 6.68799 102.134 6.41755 C 0.0 **** 0.0
16050 C 4.53146 100.612 5.37766 C 0.0 **** 0.0
16051 O 4.14188 97.8316 5.31664 O 0.0 **** 0.0
16052 C 1.31202 95.1279 2.04459 C 0.0 **** 0.0
16053 C 2.07953 92.3661 1.40273 C 0.0 **** 0.0
16054 O 5.82132 91.5839 2.88122 O 0.0 **** 0.0
16055 O 8.71661 96.0388 0.97953 O 0.0 **** 0.0
16056 O 10.5912 94.1347 0.458936 O 0.0 **** 0.0
16057 O 6.75321 90.4923 0.650781 O 0.0 **** 0.0
16058 C 6.55151 83.0242 -2.40536 C 0.0 **** 0.0
16059 C 4.77532 83.2726 0.0475231 C 0.0 **** 0.0
16060 H 9.85081 98.934 2.6974 H 0.0 **** 0.0
16061 H 10.3372 98.5155 4.40919 H 0.0 **** 0.0
16062 H 9.59305 102.12 5.88154 H 0.0 **** 0.0
16063 H 8.60752 102.825 4.52004 H 0.0 **** 0.0
16064 H 8.72666 97.1054 3.0129 H 0.0 **** 0.0
16065 H 3.75571 92.2953 3.54536 H 0.0 **** 0.0
16066 H 2.76602 93.4999 3.94311 H 0.0 **** 0.0
16067 H 4.00718 93.3261 1.07291 H 0.0 **** 0.0
16068 H 2.52488 94.8853 0.334062 H 0.0 **** 0.0
16069 H 3.21195 96.8978 1.78623 H 0.0 **** 0.0
16070 H 4.45405 95.8901 1.14948 H 0.0 **** 0.0
16071 H 11.6332 92.6065 -1.2936 H 0.0 **** 0.0
16072 H 11.6911 91.1679 -0.38702 H 0.0 **** 0.0
16073 H 11.647 90.8146 -2.87552 H 0.0 **** 0.0
16074 H 10.1168 91.632 -3.0791 H 0.0 **** 0.0
16075 H 10.788 89.0485 -4.69572 H 0.0 **** 0.0
16076 H 12.1191 88.8964 -3.50209 H 0.0 **** 0.0
16077 H 12.1766 86.5194 -3.47906 H 0.0 **** 0.0
16078 H 11.9868 86.9994 -5.21434 H 0.0 **** 0.0
16079 H 10.5755 85.0267 -4.47854 H 0.0 **** 0.0
16080 H 9.58108 86.5518 -5.12914 H 0.0 **** 0.0
16081 H 9.97744 85.4859 -2.24635 H 0.0 **** 0.0
16082 H 7.57877 85.8994 -4.04193 H 0.0 **** 0.0
16083 H 8.3539 84.3496 -3.61626 H 0.0 **** 0.0
16084 H 6.21307 87.67 0.307282 H 0.0 **** 0.0
16085 H 4.80736 85.8397 0.993462 H 0.0 **** 0.0
16086 H 14.5532 100.183 1.59263 H 0.0 **** 0.0
16087 H 14.6568 101.854 1.23721 H 0.0 **** 0.0
16088 H 14.1693 100.22 -0.673642 H 0.0 **** 0.0
16089 H 13.2302 101.766 -0.591333 H 0.0 **** 0.0
16090 H 12.518 100.111 -0.039936 H 0.0 **** 0.0
16091 H 13.7252 103.613 1.09765 H 0.0 **** 0.0
16092 H 13.2533 104.58 2.54938 H 0.0 **** 0.0
16093 H 12.0462 104.383 1.29488 H 0.0 **** 0.0
16094 H 12.2538 98.6145 1.57751 H 0.0 **** 0.0
16095 H 12.03 98.1206 3.29657 H 0.0 **** 0.0
16096 H 13.5994 98.7183 2.76258 H 0.0 **** 0.0
16097 H 10.7932 104.994 3.42431 H 0.0 **** 0.0
16098 H 12.0221 104.513 4.67821 H 0.0 **** 0.0
16099 H 10.2891 104.307 4.93777 H 0.0 **** 0.0
16100 H 7.58395 102.688 6.73248 H 0.0 **** 0.0
16101 H 6.24756 101.83 7.38342 H 0.0 **** 0.0
16102 H 5.94573 102.839 5.92485 H 0.0 **** 0.0
16103 H 3.90809 100.155 4.64991 H 0.0 **** 0.0
16104 H 4.45228 101.709 5.20281 H 0.0 **** 0.0
16105 H 4.20989 100.382 6.41353 H 0.0 **** 0.0
16106 H 3.45725 97.1178 5.15324 H 0.0 **** 0.0
16107 H 1.04265 96.1933 1.88405 H 0.0 **** 0.0
16108 H 1.2657 94.9182 3.15643 H 0.0 **** 0.0
16109 H 0.576356 94.4864 1.54035 H 0.0 **** 0.0
16110 H 2.57685 91.3531 1.28561 H 0.0 **** 0.0
16111 H 1.63997 92.5338 0.357782 H 0.0 **** 0.0
16112 H 1.30052 92.3227 2.1982 H 0.0 **** 0.0
16113 H 6.44803 90.7783 2.96032 H 0.0 **** 0.0
16114 H 9.05227 95.86 0.0213923 H 0.0 **** 0.0
16115 H 6.23928 83.1778 -3.44589 H 0.0 **** 0.0
16116 H 5.95968 82.2022 -2.08148 H 0.0 **** 0.0
16117 H 7.59435 82.6993 -2.44212 H 0.0 **** 0.0
16118 H 4.00214 82.9345 -0.686349 H 0.0 **** 0.0
16119 H 4.31159 83.5719 1.04418 H 0.0 **** 0.0
16120 H 5.57606 82.5305 0.195753 H 0.0 **** 0.0
16121 C 55.7869 21.8354 46.0388 C 0.0 **** 0.0
16122 C 56.5323 21.4348 44.9028 C 0.0 **** 0.0
16123 C 56.9197 22.4121 43.9544 C 0.0 **** 0.0
16124 C 56.615 23.7489 44.0957 C 0.0 **** 0.0
16125 C 55.8992 24.1752 45.3078 C 0.0 **** 0.0
16126 C 55.5693 23.2365 46.3181 C 0.0 **** 0.0
16127 C 56.7801 24.7544 42.993 C 0.0 **** 0.0
16128 C 57.5268 24.3359 41.7941 C 0.0 **** 0.0
16129 C 58.0729 23.0391 41.7191 C 0.0 **** 0.0
16130 C 57.7652 21.9673 42.7713 C 0.0 **** 0.0
16131 C 58.9227 22.6826 40.6447 C 0.0 **** 0.0
16132 C 59.0799 23.5589 39.5568 C 0.0 **** 0.0
16133 C 58.5523 24.8799 39.6041 C 0.0 **** 0.0
16134 C 57.7251 25.2193 40.7052 C 0.0 **** 0.0
16135 C 57.1094 26.5063 40.6959 C 0.0 **** 0.0
16136 C 57.2938 27.4368 39.6556 C 0.0 **** 0.0
16137 C 58.2516 27.1475 38.6431 C 0.0 **** 0.0
16138 C 58.8733 25.8562 38.6225 C 0.0 **** 0.0
16139 C 58.4254 28.1031 37.4705 C 0.0 **** 0.0
16140 C 58.1679 29.5749 37.7801 C 0.0 **** 0.0
16141 C 57.1086 29.7897 38.9171 C 0.0 **** 0.0
16142 C 56.5649 28.6503 39.6075 C 0.0 **** 0.0
16143 C 57.8784 30.5242 36.5928 C 0.0 **** 0.0
16144 C 57.0082 29.8287 35.4988 C 0.0 **** 0.0
16145 C 57.494 28.4943 35.1232 C 0.0 **** 0.0
16146 C 57.4733 27.5647 36.3367 C 0.0 **** 0.0
16147 C 55.3449 28.8541 40.3263 C 0.0 **** 0.0
16148 C 54.9081 30.1937 40.6026 C 0.0 **** 0.0
16149 C 55.6817 31.286 40.1612 C 0.0 **** 0.0
16150 C 56.8709 31.0782 39.4315 C 0.0 **** 0.0
16151 C 55.2033 32.6884 40.356 C 0.0 **** 0.0
16152 C 54.01 32.9794 41.1197 C 0.0 **** 0.0
16153 C 53.3205 31.9049 41.7626 C 0.0 **** 0.0
16154 C 53.6374 30.4816 41.318 C 0.0 **** 0.0
16155 C 52.3818 32.1052 42.9072 C 0.0 **** 0.0
16156 C 51.6673 33.4418 42.8225 C 0.0 **** 0.0
16157 C 52.5791 34.5599 42.4595 C 0.0 **** 0.0
16158 C 53.6077 34.3066 41.4806 C 0.0 **** 0.0
16159 N 54.1814 35.3853 40.8743 N 0.0 **** 0.0
16160 C 53.9049 36.6652 41.2308 C 0.0 **** 0.0
16161 C 53.0418 36.9153 42.2984 C 0.0 **** 0.0
16162 C 52.4389 35.8431 42.9703 C 0.0 **** 0.0
16163 C 51.6891 36.0888 44.2994 C 0.0 **** 0.0
16164 C 51.8127 37.5304 44.7778 C 0.0 **** 0.0
16165 C 51.5757 38.4523 43.5879 C 0.0 **** 0.0
16166 C 52.7199 38.3456 42.5848 C 0.0 **** 0.0
16167 C 52.3571 39.0468 41.2405 C 0.0 **** 0.0
16168 C 53.4987 38.8343 40.2182 C 0.0 **** 0.0
16169 C 54.3036 37.6574 40.365 C 0.0 **** 0.0
16170 C 55.4381 37.4595 39.5658 C 0.0 **** 0.0
16171 C 55.7716 38.4278 38.6408 C 0.0 **** 0.0
16172 C 55.0116 39.6146 38.4474 C 0.0 **** 0.0
16173 C 53.8101 39.7762 39.18 C 0.0 **** 0.0
16174 C 54.9538 23.6674 47.6798 C 0.0 **** 0.0
16175 C 53.5138 24.2618 47.7069 C 0.0 **** 0.0
16176 C 55.0428 20.8118 46.8399 C 0.0 **** 0.0
16177 C 55.43 25.6093 45.47 C 0.0 **** 0.0
16178 C 57.0298 19.9727 44.7926 C 0.0 **** 0.0
16179 C 59.6827 21.3346 40.6863 C 0.0 **** 0.0
16180 C 59.5571 23.0019 38.2016 C 0.0 **** 0.0
16181 O 59.9024 25.5776 37.6647 O 0.0 **** 0.0
16182 C 58.8933 28.4677 34.3884 C 0.0 **** 0.0
16183 C 56.8341 30.7851 34.3141 C 0.0 **** 0.0
16184 O 57.9041 31.9813 39.2648 O 0.0 **** 0.0
16185 O 54.5754 27.7161 40.6619 O 0.0 **** 0.0
16186 O 52.8052 29.6192 41.5175 O 0.0 **** 0.0
16187 O 55.8615 33.6251 39.8857 O 0.0 **** 0.0
16188 C 52.8319 40.9047 38.8452 C 0.0 **** 0.0
16189 C 55.4103 40.5309 37.3428 C 0.0 **** 0.0
16190 H 55.7631 24.967 42.6781 H 0.0 **** 0.0
16191 H 57.347 25.6454 43.3728 H 0.0 **** 0.0
16192 H 58.7234 21.666 43.1412 H 0.0 **** 0.0
16193 H 57.1809 21.1378 42.3136 H 0.0 **** 0.0
16194 H 56.5333 26.8221 41.5609 H 0.0 **** 0.0
16195 H 57.3131 31.4272 36.8955 H 0.0 **** 0.0
16196 H 58.8403 30.8868 36.1648 H 0.0 **** 0.0
16197 H 55.9806 29.6514 35.9197 H 0.0 **** 0.0
16198 H 56.7881 28.0595 34.4307 H 0.0 **** 0.0
16199 H 57.7003 26.522 36.0105 H 0.0 **** 0.0
16200 H 56.3992 27.5166 36.7273 H 0.0 **** 0.0
16201 H 51.6154 31.2736 42.9324 H 0.0 **** 0.0
16202 H 52.9867 32.0543 43.8349 H 0.0 **** 0.0
16203 H 51.0369 33.5883 43.7267 H 0.0 **** 0.0
16204 H 50.929 33.3702 42.013 H 0.0 **** 0.0
16205 H 50.626 35.814 44.291 H 0.0 **** 0.0
16206 H 52.0995 35.4014 45.1229 H 0.0 **** 0.0
16207 H 52.8142 37.7304 45.2546 H 0.0 **** 0.0
16208 H 51.1054 37.6883 45.5731 H 0.0 **** 0.0
16209 H 51.4591 39.4858 43.8662 H 0.0 **** 0.0
16210 H 50.5753 38.2198 43.0385 H 0.0 **** 0.0
16211 H 53.5637 38.8374 43.038 H 0.0 **** 0.0
16212 H 51.441 38.5843 40.8785 H 0.0 **** 0.0
16213 H 52.2327 40.1285 41.4011 H 0.0 **** 0.0
16214 H 56.0636 36.5487 39.691 H 0.0 **** 0.0
16215 H 56.6829 38.2998 38.0813 H 0.0 **** 0.0
16216 H 55.6165 24.412 48.1567 H 0.0 **** 0.0
16217 H 54.971 22.8145 48.3631 H 0.0 **** 0.0
16218 H 53.0035 23.768 46.8808 H 0.0 **** 0.0
16219 H 53.532 25.3407 47.5551 H 0.0 **** 0.0
16220 H 52.9927 24.162 48.6709 H 0.0 **** 0.0
16221 H 54.9676 19.8097 46.3981 H 0.0 **** 0.0
16222 H 54.0032 21.1709 47.0041 H 0.0 **** 0.0
16223 H 55.4991 20.7477 47.9005 H 0.0 **** 0.0
16224 H 55.7503 26.3539 44.7482 H 0.0 **** 0.0
16225 H 55.7268 25.9867 46.4493 H 0.0 **** 0.0
16226 H 54.3199 25.6719 45.4254 H 0.0 **** 0.0
16227 H 58.0026 19.831 44.2817 H 0.0 **** 0.0
16228 H 56.2608 19.3148 44.3441 H 0.0 **** 0.0
16229 H 57.1838 19.5004 45.7869 H 0.0 **** 0.0
16230 H 60.4857 21.3155 39.9173 H 0.0 **** 0.0
16231 H 58.9308 20.4948 40.4618 H 0.0 **** 0.0
16232 H 60.2118 21.1938 41.6292 H 0.0 **** 0.0
16233 H 58.8882 23.3735 37.3749 H 0.0 **** 0.0
16234 H 59.394 21.914 38.1928 H 0.0 **** 0.0
16235 H 60.6656 23.1794 37.9859 H 0.0 **** 0.0
16236 H 60.1375 26.352 37.0457 H 0.0 **** 0.0
16237 H 58.9325 29.0022 33.4414 H 0.0 **** 0.0
16238 H 59.0894 27.3879 34.1138 H 0.0 **** 0.0
16239 H 59.7526 28.7845 35.0956 H 0.0 **** 0.0
16240 H 56.3399 31.726 34.6296 H 0.0 **** 0.0
16241 H 56.2155 30.2935 33.5399 H 0.0 **** 0.0
16242 H 57.8302 31.098 33.9369 H 0.0 **** 0.0
16243 H 57.9583 32.6938 39.9937 H 0.0 **** 0.0
16244 H 54.0689 27.7176 41.5126 H 0.0 **** 0.0
16245 H 51.7634 40.5883 39.0188 H 0.0 **** 0.0
16246 H 52.9313 41.2263 37.8027 H 0.0 **** 0.0
16247 H 53.0377 41.754 39.5178 H 0.0 **** 0.0
16248 H 54.7647 40.353 36.4588 H 0.0 **** 0.0
16249 H 56.4574 40.3399 37.0003 H 0.0 **** 0.0
16250 H 55.2496 41.5911 37.5322 H 0.0 **** 0.0
16251 C 22.5287 17.8463 53.5071 C 0.0 **** 0.0
16252 C 21.1545 17.562 53.4649 C 0.0 **** 0.0
16253 C 20.1811 18.3797 54.133 C 0.0 **** 0.0
16254 C 20.6419 19.4629 54.8928 C 0.0 **** 0.0
16255 C 22.0403 19.8217 54.8642 C 0.0 **** 0.0
16256 C 22.9576 19.0031 54.1926 C 0.0 **** 0.0
16257 C 19.6816 20.3078 55.6761 C 0.0 **** 0.0
16258 C 18.2023 19.8971 55.6652 C 0.0 **** 0.0
16259 C 17.7612 18.7043 55.0865 C 0.0 **** 0.0
16260 C 18.742 17.8573 54.3229 C 0.0 **** 0.0
16261 C 16.3672 18.366 55.1235 C 0.0 **** 0.0
16262 C 15.4251 19.3252 55.5828 C 0.0 **** 0.0
16263 C 15.8525 20.6284 55.8761 C 0.0 **** 0.0
16264 C 17.218 20.8005 56.1538 C 0.0 **** 0.0
16265 C 17.6014 22.0757 56.7168 C 0.0 **** 0.0
16266 C 16.6668 23.1316 56.928 C 0.0 **** 0.0
16267 C 15.2907 22.8866 56.7035 C 0.0 **** 0.0
16268 C 14.9276 21.6995 55.9944 C 0.0 **** 0.0
16269 C 14.2106 23.7677 57.2984 C 0.0 **** 0.0
16270 C 14.6808 25.0538 58.0749 C 0.0 **** 0.0
16271 C 16.0416 25.4741 57.6085 C 0.0 **** 0.0
16272 C 17.0331 24.5249 57.1667 C 0.0 **** 0.0
16273 C 14.5767 24.9122 59.6176 C 0.0 **** 0.0
16274 C 13.1371 24.4358 60.0712 C 0.0 **** 0.0
16275 C 12.2678 23.8998 58.9997 C 0.0 **** 0.0
16276 C 13.1442 22.9856 58.1097 C 0.0 **** 0.0
16277 C 18.3262 25.0305 56.8616 C 0.0 **** 0.0
16278 C 18.5822 26.3959 56.7818 C 0.0 **** 0.0
16279 C 17.5293 27.3077 56.9363 C 0.0 **** 0.0
16280 C 16.3014 26.84 57.4567 C 0.0 **** 0.0
16281 C 17.8414 28.7572 56.6165 C 0.0 **** 0.0
16282 C 19.2201 29.1663 56.1833 C 0.0 **** 0.0
16283 C 20.2959 28.281 56.2979 C 0.0 **** 0.0
16284 C 19.9891 26.8699 56.7471 C 0.0 **** 0.0
16285 C 21.7021 28.8234 56.3234 C 0.0 **** 0.0
16286 C 21.9229 30.019 55.3711 C 0.0 **** 0.0
16287 C 20.6634 30.9115 55.2308 C 0.0 **** 0.0
16288 C 19.4072 30.4402 55.6426 C 0.0 **** 0.0
16289 N 18.3234 31.2128 55.389 N 0.0 **** 0.0
16290 C 18.3955 32.4507 54.8128 C 0.0 **** 0.0
16291 C 19.6576 32.9736 54.4309 C 0.0 **** 0.0
16292 C 20.7543 32.1492 54.5323 C 0.0 **** 0.0
16293 C 22.1184 32.6734 54.1317 C 0.0 **** 0.0
16294 C 22.1128 33.9316 53.2027 C 0.0 **** 0.0
16295 C 21.1169 34.928 53.7345 C 0.0 **** 0.0
16296 C 19.7047 34.2813 53.6943 C 0.0 **** 0.0
16297 C 18.5711 35.262 54.122 C 0.0 **** 0.0
16298 C 17.2315 34.5592 54.3393 C 0.0 **** 0.0
16299 C 17.2107 33.1777 54.6318 C 0.0 **** 0.0
16300 C 15.9727 32.4941 54.7367 C 0.0 **** 0.0
16301 C 14.7783 33.1956 54.8184 C 0.0 **** 0.0
16302 C 14.8056 34.6133 54.6955 C 0.0 **** 0.0
16303 C 16.0223 35.2854 54.4022 C 0.0 **** 0.0
16304 C 24.4707 19.3213 54.1679 C 0.0 **** 0.0
16305 C 25.1817 18.5973 55.2563 C 0.0 **** 0.0
16306 C 23.5433 16.8388 52.9191 C 0.0 **** 0.0
16307 C 22.5121 21.021 55.6424 C 0.0 **** 0.0
16308 C 20.7024 16.3339 52.7167 C 0.0 **** 0.0
16309 C 15.8587 17.085 54.4539 C 0.0 **** 0.0
16310 C 13.9891 18.9249 55.5787 C 0.0 **** 0.0
16311 O 13.6099 21.5928 55.4865 O 0.0 **** 0.0
16312 C 11.4653 24.9102 58.1178 C 0.0 **** 0.0
16313 C 12.4115 25.6119 60.8426 C 0.0 **** 0.0
16314 O 15.3514 27.7258 58.0359 O 0.0 **** 0.0
16315 O 19.3234 24.1428 56.4654 O 0.0 **** 0.0
16316 O 20.8937 26.1232 57.1663 O 0.0 **** 0.0
16317 O 16.9991 29.619 56.8582 O 0.0 **** 0.0
16318 C 16.0545 36.785 54.2049 C 0.0 **** 0.0
16319 C 13.449 35.278 54.8047 C 0.0 **** 0.0
16320 H 20.0146 20.3129 56.7151 H 0.0 **** 0.0
16321 H 19.7238 21.3186 55.262 H 0.0 **** 0.0
16322 H 18.384 17.5809 53.3029 H 0.0 **** 0.0
16323 H 18.8231 16.9184 54.9129 H 0.0 **** 0.0
16324 H 18.6589 22.1288 56.9584 H 0.0 **** 0.0
16325 H 15.3172 24.1251 59.8774 H 0.0 **** 0.0
16326 H 14.885 25.8293 60.2029 H 0.0 **** 0.0
16327 H 13.2525 23.5541 60.7998 H 0.0 **** 0.0
16328 H 11.49 23.1899 59.4255 H 0.0 **** 0.0
16329 H 12.4943 22.3955 57.4426 H 0.0 **** 0.0
16330 H 13.6692 22.1754 58.7071 H 0.0 **** 0.0
16331 H 21.8495 29.2506 57.3479 H 0.0 **** 0.0
16332 H 22.5051 28.0552 56.1934 H 0.0 **** 0.0
16333 H 22.168 29.6627 54.2885 H 0.0 **** 0.0
16334 H 22.7623 30.628 55.8207 H 0.0 **** 0.0
16335 H 22.5957 32.9748 55.0574 H 0.0 **** 0.0
16336 H 22.7026 31.86 53.5637 H 0.0 **** 0.0
16337 H 21.8515 33.6536 52.145 H 0.0 **** 0.0
16338 H 23.1367 34.3781 53.1904 H 0.0 **** 0.0
16339 H 21.0847 35.9055 53.167 H 0.0 **** 0.0
16340 H 21.3636 35.1873 54.7781 H 0.0 **** 0.0
16341 H 19.5397 34.0065 52.6375 H 0.0 **** 0.0
16342 H 18.8294 35.8395 55.0226 H 0.0 **** 0.0
16343 H 18.5201 35.976 53.2413 H 0.0 **** 0.0
16344 H 15.9817 31.4241 54.8595 H 0.0 **** 0.0
16345 H 13.8252 32.6657 55.0039 H 0.0 **** 0.0
16346 H 24.7165 20.3849 54.2076 H 0.0 **** 0.0
16347 H 24.8286 18.9915 53.1787 H 0.0 **** 0.0
16348 H 25.0689 19.1722 56.17 H 0.0 **** 0.0
16349 H 26.2699 18.5878 54.9754 H 0.0 **** 0.0
16350 H 24.7915 17.5679 55.4524 H 0.0 **** 0.0
16351 H 23.2921 15.8667 53.3271 H 0.0 **** 0.0
16352 H 24.5441 16.8709 53.3427 H 0.0 **** 0.0
16353 H 23.6111 16.8957 51.8276 H 0.0 **** 0.0
16354 H 21.7025 21.5997 56.1779 H 0.0 **** 0.0
16355 H 23.0412 21.7413 54.9949 H 0.0 **** 0.0
16356 H 23.258 20.7684 56.4432 H 0.0 **** 0.0
16357 H 20.3312 15.5799 53.4465 H 0.0 **** 0.0
16358 H 21.3796 15.8148 52.0577 H 0.0 **** 0.0
16359 H 19.8591 16.6653 52.0655 H 0.0 **** 0.0
16360 H 15.2645 17.3 53.5341 H 0.0 **** 0.0
16361 H 15.2916 16.5558 55.2259 H 0.0 **** 0.0
16362 H 16.6378 16.4122 54.1025 H 0.0 **** 0.0
16363 H 13.4492 19.4313 56.4132 H 0.0 **** 0.0
16364 H 13.825 17.83 55.8232 H 0.0 **** 0.0
16365 H 13.4981 19.2023 54.6159 H 0.0 **** 0.0
16366 H 13.1605 22.4862 55.3639 H 0.0 **** 0.0
16367 H 10.5469 25.2842 58.7308 H 0.0 **** 0.0
16368 H 11.0493 24.3937 57.2227 H 0.0 **** 0.0
16369 H 12.1496 25.7351 57.7922 H 0.0 **** 0.0
16370 H 12.7672 25.6457 61.892 H 0.0 **** 0.0
16371 H 11.2947 25.4294 60.9404 H 0.0 **** 0.0
16372 H 12.5358 26.5773 60.3002 H 0.0 **** 0.0
16373 H 15.7721 28.5291 58.4555 H 0.0 **** 0.0
16374 H 19.9031 24.5108 55.723 H 0.0 **** 0.0
16375 H 16.7633 37.2033 54.9437 H 0.0 **** 0.0
16376 H 15.0905 37.2694 54.2931 H 0.0 **** 0.0
16377 H 16.4331 37.0546 53.1795 H 0.0 **** 0.0
16378 H 13.4193 35.9518 55.6985 H 0.0 **** 0.0
16379 H 12.5823 34.5914 54.8076 H 0.0 **** 0.0
16380 H 13.2365 35.8625 53.9063 H 0.0 **** 0.0
16381 C 18.272 40.9093 67.1711 C 0.0 **** 0.0
16382 C 18.426 40.2682 65.9081 C 0.0 **** 0.0
16383 C 18.1968 40.9857 64.7388 C 0.0 **** 0.0
16384 C 17.8417 42.3439 64.833 C 0.0 **** 0.0
16385 C 17.6826 42.9715 66.0887 C 0.0 **** 0.0
16386 C 18.1638 42.3062 67.2102 C 0.0 **** 0.0
16387 C 17.5426 43.1455 63.6087 C 0.0 **** 0.0
16388 C 17.3909 42.3837 62.3491 C 0.0 **** 0.0
16389 C 17.9517 41.1101 62.2198 C 0.0 **** 0.0
16390 C 18.5553 40.38 63.3876 C 0.0 **** 0.0
16391 C 17.9314 40.5259 60.9381 C 0.0 **** 0.0
16392 C 17.1639 41.0772 59.8574 C 0.0 **** 0.0
16393 C 16.3679 42.2379 60.1083 C 0.0 **** 0.0
16394 C 16.6537 43.0047 61.2855 C 0.0 **** 0.0
16395 C 16.1212 44.2872 61.4121 C 0.0 **** 0.0
16396 C 15.2142 44.7886 60.5289 C 0.0 **** 0.0
16397 C 14.6348 43.8916 59.62 C 0.0 **** 0.0
16398 C 15.3811 42.7151 59.2469 C 0.0 **** 0.0
16399 C 13.3029 44.2974 58.9826 C 0.0 **** 0.0
16400 C 12.6448 45.5355 59.6472 C 0.0 **** 0.0
16401 C 13.6401 46.5775 60.0154 C 0.0 **** 0.0
16402 C 14.872 46.1434 60.5158 C 0.0 **** 0.0
16403 C 11.5819 45.2952 60.7728 C 0.0 **** 0.0
16404 C 11.7741 43.9033 61.4373 C 0.0 **** 0.0
16405 C 11.922 42.7958 60.444 C 0.0 **** 0.0
16406 C 12.2992 43.1904 58.9889 C 0.0 **** 0.0
16407 C 15.8435 47.119 60.8181 C 0.0 **** 0.0
16408 C 15.6199 48.5043 60.5739 C 0.0 **** 0.0
16409 C 14.3697 48.9242 60.0123 C 0.0 **** 0.0
16410 C 13.4176 47.9308 59.6684 C 0.0 **** 0.0
16411 C 14.0579 50.3511 59.7944 C 0.0 **** 0.0
16412 C 15.1801 51.3311 59.8721 C 0.0 **** 0.0
16413 C 16.3748 50.9425 60.524 C 0.0 **** 0.0
16414 C 16.5472 49.5525 61.0522 C 0.0 **** 0.0
16415 C 17.5512 51.9038 60.5565 C 0.0 **** 0.0
16416 C 17.0897 53.3413 60.7627 C 0.0 **** 0.0
16417 C 16.0163 53.6729 59.7069 C 0.0 **** 0.0
16418 C 15.0884 52.6342 59.368 C 0.0 **** 0.0
16419 N 14.0891 52.9458 58.4916 N 0.0 **** 0.0
16420 C 13.9458 54.1406 57.886 C 0.0 **** 0.0
16421 C 14.9384 55.1154 58.0684 C 0.0 **** 0.0
16422 C 15.9158 54.9296 59.0774 C 0.0 **** 0.0
16423 C 16.5705 56.1456 59.6571 C 0.0 **** 0.0
16424 C 16.7536 57.2386 58.5873 C 0.0 **** 0.0
16425 C 15.3944 57.6 58.0469 C 0.0 **** 0.0
16426 C 14.8944 56.4228 57.2456 C 0.0 **** 0.0
16427 C 13.4904 56.7813 56.7076 C 0.0 **** 0.0
16428 C 12.6804 55.605 56.2708 C 0.0 **** 0.0
16429 C 12.8603 54.3566 56.9529 C 0.0 **** 0.0
16430 C 11.878 53.3424 56.7745 C 0.0 **** 0.0
16431 C 10.8515 53.4869 55.8561 C 0.0 **** 0.0
16432 C 10.7322 54.6983 55.1262 C 0.0 **** 0.0
16433 C 11.6077 55.7734 55.3778 C 0.0 **** 0.0
16434 C 18.7257 43.0752 68.4166 C 0.0 **** 0.0
16435 C 17.7042 43.3602 69.5221 C 0.0 **** 0.0
16436 C 18.1909 40.1396 68.4474 C 0.0 **** 0.0
16437 C 17.1296 44.3828 66.2342 C 0.0 **** 0.0
16438 C 18.7616 38.7868 65.849 C 0.0 **** 0.0
16439 C 18.7079 39.2222 60.6845 C 0.0 **** 0.0
16440 C 17.1645 40.3984 58.5142 C 0.0 **** 0.0
16441 O 15.1793 42.0609 58.0275 O 0.0 **** 0.0
16442 C 10.7293 41.8303 60.4458 C 0.0 **** 0.0
16443 C 10.5505 43.7361 62.4537 C 0.0 **** 0.0
16444 O 12.2236 48.3105 59.033 O 0.0 **** 0.0
16445 O 17.1464 46.7333 61.0845 O 0.0 **** 0.0
16446 O 17.3979 49.312 61.9027 O 0.0 **** 0.0
16447 O 12.882 50.6947 59.6575 O 0.0 **** 0.0
16448 C 11.5486 57.0746 54.5598 C 0.0 **** 0.0
16449 C 9.51447 54.8724 54.2809 C 0.0 **** 0.0
16450 H 16.5752 43.6217 63.8123 H 0.0 **** 0.0
16451 H 18.3191 43.9467 63.4619 H 0.0 **** 0.0
16452 H 19.6736 40.3806 63.294 H 0.0 **** 0.0
16453 H 18.0834 39.3596 63.3264 H 0.0 **** 0.0
16454 H 16.3161 44.9176 62.2467 H 0.0 **** 0.0
16455 H 11.6409 46.0863 61.5581 H 0.0 **** 0.0
16456 H 10.5758 45.3093 60.2715 H 0.0 **** 0.0
16457 H 12.6843 43.9058 62.0754 H 0.0 **** 0.0
16458 H 12.7831 42.1704 60.771 H 0.0 **** 0.0
16459 H 11.3677 43.587 58.4642 H 0.0 **** 0.0
16460 H 12.6185 42.3092 58.3927 H 0.0 **** 0.0
16461 H 18.294 51.5972 61.3286 H 0.0 **** 0.0
16462 H 17.9758 51.9279 59.5127 H 0.0 **** 0.0
16463 H 17.9647 54.0069 60.7891 H 0.0 **** 0.0
16464 H 16.5776 53.4148 61.7211 H 0.0 **** 0.0
16465 H 15.9391 56.5571 60.4382 H 0.0 **** 0.0
16466 H 17.5759 55.9415 60.0253 H 0.0 **** 0.0
16467 H 17.4548 56.8968 57.7777 H 0.0 **** 0.0
16468 H 17.1752 58.0474 59.1276 H 0.0 **** 0.0
16469 H 15.4851 58.4944 57.4089 H 0.0 **** 0.0
16470 H 14.7008 57.8536 58.8554 H 0.0 **** 0.0
16471 H 15.5799 56.2837 56.3767 H 0.0 **** 0.0
16472 H 12.8412 57.2252 57.4839 H 0.0 **** 0.0
16473 H 13.6379 57.5073 55.8753 H 0.0 **** 0.0
16474 H 11.882 52.436 57.3367 H 0.0 **** 0.0
16475 H 10.1188 52.6826 55.8088 H 0.0 **** 0.0
16476 H 19.1809 44.0417 68.0814 H 0.0 **** 0.0
16477 H 19.6506 42.5868 68.8402 H 0.0 **** 0.0
16478 H 18.1026 43.0522 70.5092 H 0.0 **** 0.0
16479 H 16.7655 42.8139 69.3461 H 0.0 **** 0.0
16480 H 17.543 44.4673 69.6232 H 0.0 **** 0.0
16481 H 17.4933 39.3162 68.369 H 0.0 **** 0.0
16482 H 17.7689 40.7482 69.2308 H 0.0 **** 0.0
16483 H 19.1898 39.7249 68.7833 H 0.0 **** 0.0
16484 H 16.1187 44.4167 65.7644 H 0.0 **** 0.0
16485 H 17.8258 45.1367 65.8172 H 0.0 **** 0.0
16486 H 16.9951 44.6863 67.3056 H 0.0 **** 0.0
16487 H 19.6129 38.6136 65.1173 H 0.0 **** 0.0
16488 H 17.917 38.2014 65.5132 H 0.0 **** 0.0
16489 H 19.1708 38.362 66.7652 H 0.0 **** 0.0
16490 H 19.4241 39.3846 59.8402 H 0.0 **** 0.0
16491 H 17.9666 38.4303 60.4841 H 0.0 **** 0.0
16492 H 19.3045 38.89 61.5347 H 0.0 **** 0.0
16493 H 16.2348 39.8602 58.3215 H 0.0 **** 0.0
16494 H 17.8786 39.5807 58.3222 H 0.0 **** 0.0
16495 H 17.3815 41.1896 57.7414 H 0.0 **** 0.0
16496 H 14.4499 42.4888 57.4196 H 0.0 **** 0.0
16497 H 10.7746 41.1894 61.3471 H 0.0 **** 0.0
16498 H 10.8892 41.1323 59.5735 H 0.0 **** 0.0
16499 H 9.75885 42.3747 60.2524 H 0.0 **** 0.0
16500 H 10.617 44.3811 63.3314 H 0.0 **** 0.0
16501 H 10.5726 42.7472 62.9082 H 0.0 **** 0.0
16502 H 9.59561 44.0611 61.9772 H 0.0 **** 0.0
16503 H 12.3861 48.872 58.1994 H 0.0 **** 0.0
16504 H 17.8321 47.108 60.4259 H 0.0 **** 0.0
16505 H 11.6416 57.9916 55.2433 H 0.0 **** 0.0
16506 H 10.5911 57.1525 54.0481 H 0.0 **** 0.0
16507 H 12.3808 57.1264 53.8489 H 0.0 **** 0.0
16508 H 8.93316 55.7621 54.6669 H 0.0 **** 0.0
16509 H 8.81912 54.0261 54.3527 H 0.0 **** 0.0
16510 H 9.81284 55.0567 53.2172 H 0.0 **** 0.0
16511 C 33.2055 65.3285 44.8356 C 0.0 **** 0.0
16512 C 32.7209 66.1783 45.8725 C 0.0 **** 0.0
16513 C 31.9149 65.6343 46.9171 C 0.0 **** 0.0
16514 C 31.475 64.2699 46.8391 C 0.0 **** 0.0
16515 C 31.9528 63.4476 45.7877 C 0.0 **** 0.0
16516 C 32.7721 63.9735 44.7763 C 0.0 **** 0.0
16517 C 30.4642 63.7227 47.8197 C 0.0 **** 0.0
16518 C 30.0594 64.6144 49.0138 C 0.0 **** 0.0
16519 C 30.634 65.9108 49.1455 C 0.0 **** 0.0
16520 C 31.5715 66.4645 48.0885 C 0.0 **** 0.0
16521 C 30.3007 66.6961 50.2988 C 0.0 **** 0.0
16522 C 29.3137 66.2977 51.2278 C 0.0 **** 0.0
16523 C 28.5273 65.1257 50.9068 C 0.0 **** 0.0
16524 C 28.9751 64.2396 49.9034 C 0.0 **** 0.0
16525 C 28.3133 63.0276 49.7199 C 0.0 **** 0.0
16526 C 27.072 62.7308 50.2551 C 0.0 **** 0.0
16527 C 26.5174 63.6895 51.1019 C 0.0 **** 0.0
16528 C 27.2296 64.8975 51.4345 C 0.0 **** 0.0
16529 C 25.1964 63.4013 51.6944 C 0.0 **** 0.0
16530 C 25.2034 61.977 52.2628 C 0.0 **** 0.0
16531 C 25.6336 60.9996 51.1662 C 0.0 **** 0.0
16532 C 26.4606 61.4738 50.1255 C 0.0 **** 0.0
16533 C 23.8405 61.719 52.9158 C 0.0 **** 0.0
16534 C 22.7249 61.8955 51.7846 C 0.0 **** 0.0
16535 C 22.733 63.2673 51.1758 C 0.0 **** 0.0
16536 C 24.1022 63.5397 50.595 C 0.0 **** 0.0
16537 C 26.7326 60.7072 48.9818 C 0.0 **** 0.0
16538 C 26.5703 59.304 49.0114 C 0.0 **** 0.0
16539 C 25.7844 58.7658 50.0265 C 0.0 **** 0.0
16540 C 25.3586 59.5918 51.1826 C 0.0 **** 0.0
16541 C 25.0944 57.4875 49.7342 C 0.0 **** 0.0
16542 C 25.5791 56.588 48.5951 C 0.0 **** 0.0
16543 C 26.5594 57.0919 47.7604 C 0.0 **** 0.0
16544 C 27.0388 58.4614 47.9026 C 0.0 **** 0.0
16545 C 27.1991 56.2288 46.7312 C 0.0 **** 0.0
16546 C 26.1349 55.366 46.086 C 0.0 **** 0.0
16547 C 25.2621 54.6505 47.1044 C 0.0 **** 0.0
16548 C 25.059 55.2848 48.3507 C 0.0 **** 0.0
16549 N 24.237 54.7432 49.2318 N 0.0 **** 0.0
16550 C 23.5509 53.5902 49.0387 C 0.0 **** 0.0
16551 C 23.6161 52.9952 47.7612 C 0.0 **** 0.0
16552 C 24.4975 53.4838 46.7497 C 0.0 **** 0.0
16553 C 24.5792 52.8007 45.4021 C 0.0 **** 0.0
16554 C 24.035 51.3803 45.3365 C 0.0 **** 0.0
16555 C 22.7125 51.2513 46.1279 C 0.0 **** 0.0
16556 C 22.9833 51.6225 47.5947 C 0.0 **** 0.0
16557 C 21.7139 51.478 48.4156 C 0.0 **** 0.0
16558 C 21.853 52.0185 49.8606 C 0.0 **** 0.0
16559 C 22.7598 53.1171 50.0841 C 0.0 **** 0.0
16560 C 22.7507 53.7548 51.3734 C 0.0 **** 0.0
16561 C 21.9952 53.1927 52.3883 C 0.0 **** 0.0
16562 C 21.2546 52.031 52.2376 C 0.0 **** 0.0
16563 C 21.0567 51.4819 50.9408 C 0.0 **** 0.0
16564 C 33.2645 63.1026 43.6004 C 0.0 **** 0.0
16565 C 32.2731 62.9965 42.4 C 0.0 **** 0.0
16566 C 34.0768 65.8338 43.7327 C 0.0 **** 0.0
16567 C 31.5401 61.9812 45.7688 C 0.0 **** 0.0
16568 C 33.0883 67.6474 45.8537 C 0.0 **** 0.0
16569 C 31.0495 67.9981 50.5562 C 0.0 **** 0.0
16570 C 29.209 66.9547 52.6026 C 0.0 **** 0.0
16571 O 26.6926 65.8912 52.2433 O 0.0 **** 0.0
16572 C 22.2964 64.4596 52.0745 C 0.0 **** 0.0
16573 C 21.3752 61.5077 52.3728 C 0.0 **** 0.0
16574 O 24.684 58.9958 52.2634 O 0.0 **** 0.0
16575 O 27.0029 61.3974 47.8081 O 0.0 **** 0.0
16576 O 27.9369 58.8637 47.1799 O 0.0 **** 0.0
16577 O 24.0077 57.2934 50.2498 O 0.0 **** 0.0
16578 C 19.9564 50.4551 50.6928 C 0.0 **** 0.0
16579 C 20.7048 51.281 53.4184 C 0.0 **** 0.0
16580 H 29.5435 63.4678 47.2762 H 0.0 **** 0.0
16581 H 30.9445 62.841 48.3003 H 0.0 **** 0.0
16582 H 32.4998 66.9147 48.5097 H 0.0 **** 0.0
16583 H 30.9571 67.2708 47.6419 H 0.0 **** 0.0
16584 H 28.7401 62.2954 49.0515 H 0.0 **** 0.0
16585 H 23.8279 60.7445 53.4626 H 0.0 **** 0.0
16586 H 23.6723 62.4403 53.7076 H 0.0 **** 0.0
16587 H 22.98 61.1397 51.0126 H 0.0 **** 0.0
16588 H 22.0643 63.2573 50.3156 H 0.0 **** 0.0
16589 H 24.1043 64.6085 50.2367 H 0.0 **** 0.0
16590 H 24.2874 62.8583 49.7648 H 0.0 **** 0.0
16591 H 27.7319 56.7708 45.8981 H 0.0 **** 0.0
16592 H 28.0149 55.5784 47.164 H 0.0 **** 0.0
16593 H 26.6801 54.6451 45.3938 H 0.0 **** 0.0
16594 H 25.485 55.933 45.4192 H 0.0 **** 0.0
16595 H 24.0641 53.4025 44.6378 H 0.0 **** 0.0
16596 H 25.6216 52.737 45.0977 H 0.0 **** 0.0
16597 H 24.8227 50.6853 45.7496 H 0.0 **** 0.0
16598 H 23.9414 51.1394 44.2822 H 0.0 **** 0.0
16599 H 22.3267 50.2263 46.1375 H 0.0 **** 0.0
16600 H 21.96 51.9276 45.6818 H 0.0 **** 0.0
16601 H 23.7768 50.9445 48.0349 H 0.0 **** 0.0
16602 H 20.8532 51.89 47.8992 H 0.0 **** 0.0
16603 H 21.4803 50.4003 48.4674 H 0.0 **** 0.0
16604 H 23.3385 54.6012 51.5426 H 0.0 **** 0.0
16605 H 22.0681 53.6516 53.3871 H 0.0 **** 0.0
16606 H 33.5393 62.0871 43.9293 H 0.0 **** 0.0
16607 H 34.305 63.4297 43.2989 H 0.0 **** 0.0
16608 H 32.2058 64.0059 41.9959 H 0.0 **** 0.0
16609 H 31.258 62.5981 42.6695 H 0.0 **** 0.0
16610 H 32.6769 62.3948 41.5467 H 0.0 **** 0.0
16611 H 34.1619 66.9457 43.6861 H 0.0 **** 0.0
16612 H 33.6786 65.5887 42.7376 H 0.0 **** 0.0
16613 H 35.1074 65.4832 43.819 H 0.0 **** 0.0
16614 H 30.4565 61.9581 45.8496 H 0.0 **** 0.0
16615 H 31.9722 61.5504 46.6889 H 0.0 **** 0.0
16616 H 31.7541 61.3533 44.9122 H 0.0 **** 0.0
16617 H 32.774 68.182 46.7511 H 0.0 **** 0.0
16618 H 32.6312 68.1015 44.9661 H 0.0 **** 0.0
16619 H 34.1699 67.7598 45.8677 H 0.0 **** 0.0
16620 H 31.9984 67.7298 50.9851 H 0.0 **** 0.0
16621 H 30.5462 68.6854 51.2387 H 0.0 **** 0.0
16622 H 31.0758 68.6269 49.6358 H 0.0 **** 0.0
16623 H 28.5391 67.8344 52.5346 H 0.0 **** 0.0
16624 H 30.1762 67.2918 52.9792 H 0.0 **** 0.0
16625 H 28.9574 66.2311 53.3809 H 0.0 **** 0.0
16626 H 26.0435 65.4936 52.9228 H 0.0 **** 0.0
16627 H 21.271 64.2343 52.466 H 0.0 **** 0.0
16628 H 22.2714 65.4169 51.4921 H 0.0 **** 0.0
16629 H 23.0119 64.5877 52.8756 H 0.0 **** 0.0
16630 H 21.4461 60.4002 52.5965 H 0.0 **** 0.0
16631 H 20.6051 61.6724 51.6317 H 0.0 **** 0.0
16632 H 21.0816 62.0491 53.3291 H 0.0 **** 0.0
16633 H 24.6444 58.0165 52.2993 H 0.0 **** 0.0
16634 H 26.7563 60.9257 46.9697 H 0.0 **** 0.0
16635 H 19.152 50.9294 50.0889 H 0.0 **** 0.0
16636 H 19.3836 50.0958 51.5409 H 0.0 **** 0.0
16637 H 20.398 49.5565 50.1998 H 0.0 **** 0.0
16638 H 19.6313 51.3759 53.5004 H 0.0 **** 0.0
16639 H 21.121 51.7075 54.3586 H 0.0 **** 0.0
16640 H 20.9854 50.1973 53.3255 H 0.0 **** 0.0
16641 C 30.9333 18.5952 38.7909 C 0.0 **** 0.0
16642 C 30.049 19.6814 39.0276 C 0.0 **** 0.0
16643 C 29.2938 20.2692 37.9397 C 0.0 **** 0.0
16644 C 29.5505 19.899 36.6296 C 0.0 **** 0.0
16645 C 30.6354 18.9081 36.3721 C 0.0 **** 0.0
16646 C 31.3008 18.2525 37.4449 C 0.0 **** 0.0
16647 C 29.0163 20.6858 35.4964 C 0.0 **** 0.0
16648 C 27.8721 21.6404 35.7199 C 0.0 **** 0.0
16649 C 27.4564 21.8767 37.0509 C 0.0 **** 0.0
16650 C 28.2824 21.3606 38.2329 C 0.0 **** 0.0
16651 C 26.2073 22.5384 37.2842 C 0.0 **** 0.0
16652 C 25.4359 22.9687 36.1454 C 0.0 **** 0.0
16653 C 26.0473 23.0115 34.8331 C 0.0 **** 0.0
16654 C 27.2585 22.3254 34.6257 C 0.0 **** 0.0
16655 C 27.6999 22.1412 33.3188 C 0.0 **** 0.0
16656 C 26.9937 22.6411 32.2003 C 0.0 **** 0.0
16657 C 25.9846 23.5822 32.4804 C 0.0 **** 0.0
16658 C 25.4367 23.704 33.757 C 0.0 **** 0.0
16659 C 25.4959 24.5233 31.3357 C 0.0 **** 0.0
16660 C 26.2697 24.3345 30.0259 C 0.0 **** 0.0
16661 C 26.6649 22.9191 29.7746 C 0.0 **** 0.0
16662 C 27.2604 22.1851 30.8319 C 0.0 **** 0.0
16663 C 27.4656 25.3147 29.7795 C 0.0 **** 0.0
16664 C 28.0357 25.8917 31.0865 C 0.0 **** 0.0
16665 C 26.973 26.5273 31.9359 C 0.0 **** 0.0
16666 C 25.4952 26.0065 31.653 C 0.0 **** 0.0
16667 C 27.9178 20.9594 30.4873 C 0.0 **** 0.0
16668 C 27.8706 20.4922 29.0917 C 0.0 **** 0.0
16669 C 27.0677 21.1568 28.1128 C 0.0 **** 0.0
16670 C 26.5249 22.4003 28.4712 C 0.0 **** 0.0
16671 C 26.8033 20.4499 26.8044 C 0.0 **** 0.0
16672 C 27.7708 19.4605 26.3247 C 0.0 **** 0.0
16673 C 28.5529 18.7972 27.2449 C 0.0 **** 0.0
16674 C 28.5452 19.242 28.6628 C 0.0 **** 0.0
16675 C 29.3955 17.627 26.8088 C 0.0 **** 0.0
16676 C 30.0312 17.8861 25.4389 C 0.0 **** 0.0
16677 C 29.0961 18.5342 24.4606 C 0.0 **** 0.0
16678 C 28.0036 19.3168 24.9206 C 0.0 **** 0.0
16679 N 27.2638 20.0105 24.0242 N 0.0 **** 0.0
16680 C 27.5755 20.1464 22.7173 C 0.0 **** 0.0
16681 C 28.6829 19.4692 22.1824 C 0.0 **** 0.0
16682 C 29.4606 18.6716 23.0776 C 0.0 **** 0.0
16683 C 30.6492 17.8766 22.5945 C 0.0 **** 0.0
16684 C 31.036 18.1193 21.1284 C 0.0 **** 0.0
16685 C 30.5524 19.424 20.5355 C 0.0 **** 0.0
16686 C 29.0466 19.6339 20.7346 C 0.0 **** 0.0
16687 C 28.5415 20.9934 20.1306 C 0.0 **** 0.0
16688 C 27.1379 21.4015 20.6431 C 0.0 **** 0.0
16689 C 26.7434 20.9797 21.9085 C 0.0 **** 0.0
16690 C 25.535 21.4724 22.436 C 0.0 **** 0.0
16691 C 24.7502 22.353 21.7563 C 0.0 **** 0.0
16692 C 25.0701 22.6863 20.4311 C 0.0 **** 0.0
16693 C 26.3749 22.3802 19.9406 C 0.0 **** 0.0
16694 C 32.4723 17.3005 37.1868 C 0.0 **** 0.0
16695 C 33.8458 17.918 37.4828 C 0.0 **** 0.0
16696 C 31.4942 17.8345 40.007 C 0.0 **** 0.0
16697 C 30.9832 18.5048 34.9035 C 0.0 **** 0.0
16698 C 29.8083 20.128 40.4517 C 0.0 **** 0.0
16699 C 25.6816 22.7428 38.7055 C 0.0 **** 0.0
16700 C 23.9788 23.1925 36.2949 C 0.0 **** 0.0
16701 O 24.2024 24.3402 33.9526 O 0.0 **** 0.0
16702 C 27.0002 28.076 31.8751 C 0.0 **** 0.0
16703 C 29.3107 26.6871 30.8914 C 0.0 **** 0.0
16704 O 25.9345 23.2417 27.5227 O 0.0 **** 0.0
16705 O 28.5999 20.1997 31.475 O 0.0 **** 0.0
16706 O 29.0041 18.517 29.4976 O 0.0 **** 0.0
16707 O 25.7786 20.6228 26.1317 O 0.0 **** 0.0
16708 C 26.8288 22.9702 18.6283 C 0.0 **** 0.0
16709 C 24.0683 23.4735 19.6303 C 0.0 **** 0.0
16710 H 29.8285 21.3186 35.0349 H 0.0 **** 0.0
16711 H 28.6439 19.9717 34.7796 H 0.0 **** 0.0
16712 H 27.5653 20.8571 38.8956 H 0.0 **** 0.0
16713 H 28.7559 22.2574 38.7272 H 0.0 **** 0.0
16714 H 28.6016 21.6181 33.1313 H 0.0 **** 0.0
16715 H 28.215 24.8068 29.1666 H 0.0 **** 0.0
16716 H 27.1174 26.1421 29.1463 H 0.0 **** 0.0
16717 H 28.3893 25.0118 31.672 H 0.0 **** 0.0
16718 H 27.1582 26.215 32.9599 H 0.0 **** 0.0
16719 H 25.1049 26.5952 30.7649 H 0.0 **** 0.0
16720 H 24.8871 26.2515 32.5542 H 0.0 **** 0.0
16721 H 30.1267 17.2966 27.584 H 0.0 **** 0.0
16722 H 28.7164 16.7645 26.6286 H 0.0 **** 0.0
16723 H 30.457 16.9228 25.1237 H 0.0 **** 0.0
16724 H 30.8578 18.62 25.5949 H 0.0 **** 0.0
16725 H 31.564 18.2351 23.167 H 0.0 **** 0.0
16726 H 30.3932 16.7687 22.7363 H 0.0 **** 0.0
16727 H 30.5561 17.2652 20.5699 H 0.0 **** 0.0
16728 H 32.1723 18.0321 20.9809 H 0.0 **** 0.0
16729 H 30.767 19.4225 19.4363 H 0.0 **** 0.0
16730 H 31.1217 20.3086 20.9436 H 0.0 **** 0.0
16731 H 28.5338 18.8473 20.2099 H 0.0 **** 0.0
16732 H 29.22 21.8546 20.3653 H 0.0 **** 0.0
16733 H 28.6078 20.8794 19.0475 H 0.0 **** 0.0
16734 H 25.1543 21.1279 23.3988 H 0.0 **** 0.0
16735 H 23.7997 22.6346 22.1457 H 0.0 **** 0.0
16736 H 32.5445 16.9372 36.1331 H 0.0 **** 0.0
16737 H 32.3471 16.3563 37.6977 H 0.0 **** 0.0
16738 H 34.0642 18.077 38.5263 H 0.0 **** 0.0
16739 H 33.9382 18.8876 36.9346 H 0.0 **** 0.0
16740 H 34.5918 17.1775 37.135 H 0.0 **** 0.0
16741 H 30.773 17.5383 40.7547 H 0.0 **** 0.0
16742 H 32.3393 18.5089 40.4282 H 0.0 **** 0.0
16743 H 31.9764 16.8881 39.6746 H 0.0 **** 0.0
16744 H 30.5038 19.1109 34.1583 H 0.0 **** 0.0
16745 H 30.6139 17.4635 34.7037 H 0.0 **** 0.0
16746 H 32.0707 18.6318 34.6905 H 0.0 **** 0.0
16747 H 30.6595 19.8073 41.145 H 0.0 **** 0.0
16748 H 28.9127 19.5992 40.7534 H 0.0 **** 0.0
16749 H 29.5898 21.1963 40.57 H 0.0 **** 0.0
16750 H 25.4587 21.7635 39.2002 H 0.0 **** 0.0
16751 H 24.8919 23.5036 38.8632 H 0.0 **** 0.0
16752 H 26.5356 23.1698 39.2165 H 0.0 **** 0.0
16753 H 23.7099 24.2503 36.5779 H 0.0 **** 0.0
16754 H 23.567 22.5476 37.1063 H 0.0 **** 0.0
16755 H 23.3746 22.8182 35.443 H 0.0 **** 0.0
16756 H 23.6448 24.474 33.1167 H 0.0 **** 0.0
16757 H 27.8776 28.5305 32.3626 H 0.0 **** 0.0
16758 H 26.147 28.4873 32.4532 H 0.0 **** 0.0
16759 H 26.8968 28.4281 30.8706 H 0.0 **** 0.0
16760 H 30.0977 26.105 30.3475 H 0.0 **** 0.0
16761 H 29.8001 26.9963 31.8202 H 0.0 **** 0.0
16762 H 29.1744 27.661 30.337 H 0.0 **** 0.0
16763 H 26.133 22.9739 26.567 H 0.0 **** 0.0
16764 H 29.5773 20.1237 31.1936 H 0.0 **** 0.0
16765 H 27.7711 23.5125 18.7126 H 0.0 **** 0.0
16766 H 26.0793 23.5275 18.0541 H 0.0 **** 0.0
16767 H 27.0329 22.1259 17.9582 H 0.0 **** 0.0
16768 H 24.3779 24.5279 19.5685 H 0.0 **** 0.0
16769 H 23.028 23.4231 20.0772 H 0.0 **** 0.0
16770 H 23.9605 23.0249 18.6274 H 0.0 **** 0.0
16771 C -2.70652 72.9699 28.7693 C 0.0 **** 0.0
16772 C -1.59809 73.8005 28.4343 C 0.0 **** 0.0
16773 C -0.650408 73.4224 27.4609 C 0.0 **** 0.0
16774 C -0.78599 72.2191 26.7957 C 0.0 **** 0.0
16775 C -1.88847 71.3527 27.0508 C 0.0 **** 0.0
16776 C -2.80083 71.7086 28.0984 C 0.0 **** 0.0
16777 C 0.212419 71.8381 25.7144 C 0.0 **** 0.0
16778 C 1.50948 72.5687 25.6599 C 0.0 **** 0.0
16779 C 1.69229 73.7237 26.422 C 0.0 **** 0.0
16780 C 0.517084 74.2997 27.2213 C 0.0 **** 0.0
16781 C 2.91932 74.4131 26.3217 C 0.0 **** 0.0
16782 C 4.01636 73.8566 25.5959 C 0.0 **** 0.0
16783 C 3.82433 72.703 24.7685 C 0.0 **** 0.0
16784 C 2.53014 72.111 24.8024 C 0.0 **** 0.0
16785 C 2.19023 71.0855 23.9167 C 0.0 **** 0.0
16786 C 3.13004 70.4547 23.0791 C 0.0 **** 0.0
16787 C 4.45456 70.9681 23.1212 C 0.0 **** 0.0
16788 C 4.77537 72.1382 23.9119 C 0.0 **** 0.0
16789 C 5.47063 70.2707 22.2807 C 0.0 **** 0.0
16790 C 4.88713 69.8273 20.8914 C 0.0 **** 0.0
16791 C 3.44438 69.3852 20.9014 C 0.0 **** 0.0
16792 C 2.67509 69.5468 22.0828 C 0.0 **** 0.0
16793 C 5.86973 68.9552 20.0188 C 0.0 **** 0.0
16794 C 6.35527 67.7451 20.8365 C 0.0 **** 0.0
16795 C 6.95922 68.1689 22.1418 C 0.0 **** 0.0
16796 C 5.98892 69.0059 23.0154 C 0.0 **** 0.0
16797 C 1.36592 68.9616 22.126 C 0.0 **** 0.0
16798 C 0.743639 68.4478 20.9595 C 0.0 **** 0.0
16799 C 1.42032 68.617 19.736 C 0.0 **** 0.0
16800 C 2.72407 69.1575 19.7048 C 0.0 **** 0.0
16801 C 0.794184 68.0137 18.5163 C 0.0 **** 0.0
16802 C -0.553373 67.4564 18.513 C 0.0 **** 0.0
16803 C -1.19517 67.2131 19.7274 C 0.0 **** 0.0
16804 C -0.592562 67.736 20.9862 C 0.0 **** 0.0
16805 C -2.54132 66.6181 19.7293 C 0.0 **** 0.0
16806 C -3.41129 67.0032 18.5238 C 0.0 **** 0.0
16807 C -2.59815 66.897 17.2436 C 0.0 **** 0.0
16808 C -1.22484 67.1992 17.3092 C 0.0 **** 0.0
16809 N -0.555462 67.276 16.1432 N 0.0 **** 0.0
16810 C -1.08026 67.05 14.9485 C 0.0 **** 0.0
16811 C -2.41754 66.63 14.8405 C 0.0 **** 0.0
16812 C -3.18363 66.5172 16.0123 C 0.0 **** 0.0
16813 C -4.56605 65.8722 15.9825 C 0.0 **** 0.0
16814 C -5.03618 65.3257 14.6353 C 0.0 **** 0.0
16815 C -3.90378 64.9569 13.7072 C 0.0 **** 0.0
16816 C -2.97811 66.18 13.5068 C 0.0 **** 0.0
16817 C -1.87482 65.8406 12.5037 C 0.0 **** 0.0
16818 C -0.750445 66.8906 12.5414 C 0.0 **** 0.0
16819 C -0.359419 67.373 13.8081 C 0.0 **** 0.0
16820 C 0.786909 68.176 13.9521 C 0.0 **** 0.0
16821 C 1.48786 68.5999 12.8506 C 0.0 **** 0.0
16822 C 1.10634 68.2081 11.5893 C 0.0 **** 0.0
16823 C -0.0110307 67.3366 11.4062 C 0.0 **** 0.0
16824 C -3.9219 70.692 28.455 C 0.0 **** 0.0
16825 C -3.52574 69.7922 29.5905 C 0.0 **** 0.0
16826 C -3.78734 73.4671 29.7395 C 0.0 **** 0.0
16827 C -2.05443 70.0114 26.3676 C 0.0 **** 0.0
16828 C -1.4886 75.1635 29.1238 C 0.0 **** 0.0
16829 C 3.03115 75.8051 26.9147 C 0.0 **** 0.0
16830 C 5.36786 74.6073 25.604 C 0.0 **** 0.0
16831 O 6.07829 72.7334 23.8198 O 0.0 **** 0.0
16832 C 8.30057 68.9385 21.9785 C 0.0 **** 0.0
16833 C 7.14408 66.7604 19.965 C 0.0 **** 0.0
16834 O 3.35301 69.5241 18.5104 O 0.0 **** 0.0
16835 O 0.806352 68.6299 23.38 O 0.0 **** 0.0
16836 O -1.21504 67.5607 22.0375 O 0.0 **** 0.0
16837 O 1.41201 68.0449 17.473 O 0.0 **** 0.0
16838 C -0.425905 66.8874 10.0128 C 0.0 **** 0.0
16839 C 1.98044 68.6678 10.4202 C 0.0 **** 0.0
16840 H 0.495228 70.7987 25.8476 H 0.0 **** 0.0
16841 H -0.315271 71.9452 24.7364 H 0.0 **** 0.0
16842 H 0.201813 75.1976 26.6818 H 0.0 **** 0.0
16843 H 1.00384 74.5034 28.2114 H 0.0 **** 0.0
16844 H 1.11056 70.8712 23.8 H 0.0 **** 0.0
16845 H 5.3796 68.5672 19.1178 H 0.0 **** 0.0
16846 H 6.74007 69.5833 19.7084 H 0.0 **** 0.0
16847 H 5.43678 67.1961 21.0797 H 0.0 **** 0.0
16848 H 7.14577 67.2648 22.724 H 0.0 **** 0.0
16849 H 6.54557 69.2866 23.9329 H 0.0 **** 0.0
16850 H 5.13012 68.3395 23.3985 H 0.0 **** 0.0
16851 H -2.32968 65.5464 19.6648 H 0.0 **** 0.0
16852 H -3.11161 66.8067 20.6494 H 0.0 **** 0.0
16853 H -3.72451 68.0196 18.6349 H 0.0 **** 0.0
16854 H -4.31635 66.3314 18.5079 H 0.0 **** 0.0
16855 H -4.62133 65.0361 16.7188 H 0.0 **** 0.0
16856 H -5.31734 66.6598 16.3616 H 0.0 **** 0.0
16857 H -5.72444 66.0257 14.0772 H 0.0 **** 0.0
16858 H -5.64423 64.3695 14.8392 H 0.0 **** 0.0
16859 H -4.39036 64.6508 12.7408 H 0.0 **** 0.0
16860 H -3.31502 64.0849 14.1269 H 0.0 **** 0.0
16861 H -3.58489 67.0456 13.0893 H 0.0 **** 0.0
16862 H -1.41832 64.8618 12.7292 H 0.0 **** 0.0
16863 H -2.37776 65.7774 11.5104 H 0.0 **** 0.0
16864 H 1.12812 68.4834 14.9221 H 0.0 **** 0.0
16865 H 2.35944 69.1908 13.0253 H 0.0 **** 0.0
16866 H -4.23871 70.0141 27.6448 H 0.0 **** 0.0
16867 H -4.85639 71.1893 28.7335 H 0.0 **** 0.0
16868 H -3.12677 70.4592 30.4004 H 0.0 **** 0.0
16869 H -2.71065 69.0957 29.2853 H 0.0 **** 0.0
16870 H -4.37866 69.1369 29.9036 H 0.0 **** 0.0
16871 H -3.40009 73.2636 30.7621 H 0.0 **** 0.0
16872 H -4.78008 73.0631 29.5815 H 0.0 **** 0.0
16873 H -3.92511 74.5955 29.7084 H 0.0 **** 0.0
16874 H -2.01672 69.2142 27.1473 H 0.0 **** 0.0
16875 H -1.32833 69.7892 25.5482 H 0.0 **** 0.0
16876 H -3.03901 70.0389 25.8694 H 0.0 **** 0.0
16877 H -0.683883 75.7991 28.8083 H 0.0 **** 0.0
16878 H -1.39887 74.9531 30.2435 H 0.0 **** 0.0
16879 H -2.44428 75.7416 28.901 H 0.0 **** 0.0
16880 H 3.69728 76.5453 26.377 H 0.0 **** 0.0
16881 H 3.29546 75.8217 28.0414 H 0.0 **** 0.0
16882 H 2.08896 76.3773 26.8457 H 0.0 **** 0.0
16883 H 6.15347 73.8769 25.757 H 0.0 **** 0.0
16884 H 5.54901 75.3149 26.4788 H 0.0 **** 0.0
16885 H 5.48961 75.1548 24.6488 H 0.0 **** 0.0
16886 H 6.68284 72.2516 23.1353 H 0.0 **** 0.0
16887 H 9.05727 68.3782 21.3268 H 0.0 **** 0.0
16888 H 8.78886 69.1424 22.9362 H 0.0 **** 0.0
16889 H 8.14939 69.9014 21.4467 H 0.0 **** 0.0
16890 H 7.45265 65.8509 20.5567 H 0.0 **** 0.0
16891 H 8.03498 67.2249 19.5214 H 0.0 **** 0.0
16892 H 6.52928 66.3762 19.1359 H 0.0 **** 0.0
16893 H 2.72 69.9589 17.8756 H 0.0 **** 0.0
16894 H 1.35279 68.6782 24.2391 H 0.0 **** 0.0
16895 H -0.350137 65.79 9.90521 H 0.0 **** 0.0
16896 H 0.147634 67.3326 9.17241 H 0.0 **** 0.0
16897 H -1.46897 67.1579 9.84063 H 0.0 **** 0.0
16898 H 2.24834 67.7383 9.86338 H 0.0 **** 0.0
16899 H 2.86273 69.2023 10.8093 H 0.0 **** 0.0
16900 H 1.37904 69.3611 9.75682 H 0.0 **** 0.0
16901 C 81.0346 53.7004 17.3918 C 0.0 **** 0.0
16902 C 80.0471 54.7156 17.4816 C 0.0 **** 0.0
16903 C 80.3612 56.0425 17.8845 C 0.0 **** 0.0
16904 C 81.7281 56.3866 18.1293 C 0.0 **** 0.0
16905 C 82.7538 55.3818 17.969 C 0.0 **** 0.0
16906 C 82.3882 54.0271 17.588 C 0.0 **** 0.0
16907 C 82.0221 57.842 18.4472 C 0.0 **** 0.0
16908 C 80.9794 58.4985 19.3458 C 0.0 **** 0.0
16909 C 79.6136 58.1055 19.1847 C 0.0 **** 0.0
16910 C 79.2666 57.1315 18.0881 C 0.0 **** 0.0
16911 C 78.6275 58.5961 20.0736 C 0.0 **** 0.0
16912 C 79.055 59.269 21.249 C 0.0 **** 0.0
16913 C 80.3704 59.8146 21.3032 C 0.0 **** 0.0
16914 C 81.3468 59.4339 20.3562 C 0.0 **** 0.0
16915 C 82.5928 60.0337 20.3819 C 0.0 **** 0.0
16916 C 83.0474 60.7001 21.5289 C 0.0 **** 0.0
16917 C 82.1118 61.0726 22.5146 C 0.0 **** 0.0
16918 C 80.7429 60.79 22.2836 C 0.0 **** 0.0
16919 C 82.4724 62.0231 23.679 C 0.0 **** 0.0
16920 C 83.9721 62.249 23.8507 C 0.0 **** 0.0
16921 C 84.7836 62.0742 22.5975 C 0.0 **** 0.0
16922 C 84.4002 61.1878 21.563 C 0.0 **** 0.0
16923 C 84.5746 61.6145 25.1059 C 0.0 **** 0.0
16924 C 83.8987 60.2578 25.4292 C 0.0 **** 0.0
16925 C 82.4574 60.4162 25.7237 C 0.0 **** 0.0
16926 C 81.8051 61.6425 25.0358 C 0.0 **** 0.0
16927 C 85.4276 60.7545 20.6576 C 0.0 **** 0.0
16928 C 86.6723 61.4462 20.6114 C 0.0 **** 0.0
16929 C 86.8994 62.5569 21.4526 C 0.0 **** 0.0
16930 C 85.9873 62.8352 22.4722 C 0.0 **** 0.0
16931 C 88.1474 63.4147 21.1607 C 0.0 **** 0.0
16932 C 89.3299 62.7963 20.5292 C 0.0 **** 0.0
16933 C 89.0787 61.7371 19.6638 C 0.0 **** 0.0
16934 C 87.7716 61.0297 19.6844 C 0.0 **** 0.0
16935 C 90.1731 61.3274 18.7263 C 0.0 **** 0.0
16936 C 91.4786 61.1204 19.5206 C 0.0 **** 0.0
16937 C 91.7852 62.4471 20.2583 C 0.0 **** 0.0
16938 C 90.6816 63.1706 20.8053 C 0.0 **** 0.0
16939 N 90.9355 64.3514 21.4385 N 0.0 **** 0.0
16940 C 92.1787 64.9121 21.6507 C 0.0 **** 0.0
16941 C 93.2797 64.2261 21.0689 C 0.0 **** 0.0
16942 C 93.0657 63.0281 20.3047 C 0.0 **** 0.0
16943 C 94.2268 62.4092 19.5512 C 0.0 **** 0.0
16944 C 95.3714 63.438 19.3422 C 0.0 **** 0.0
16945 C 95.7714 64.0158 20.7035 C 0.0 **** 0.0
16946 C 94.6073 64.9417 21.1356 C 0.0 **** 0.0
16947 C 94.8587 65.5515 22.5323 C 0.0 **** 0.0
16948 C 93.6425 66.3255 23.0262 C 0.0 **** 0.0
16949 C 92.3746 66.0498 22.442 C 0.0 **** 0.0
16950 C 91.2604 66.7976 22.8141 C 0.0 **** 0.0
16951 C 91.3634 67.665 23.8976 C 0.0 **** 0.0
16952 C 92.5225 67.7901 24.6166 C 0.0 **** 0.0
16953 C 93.7245 67.1603 24.2164 C 0.0 **** 0.0
16954 C 83.4936 52.9963 17.3894 C 0.0 **** 0.0
16955 C 83.9643 52.4033 18.7219 C 0.0 **** 0.0
16956 C 80.6086 52.2381 17.1514 C 0.0 **** 0.0
16957 C 84.1919 55.7651 18.3102 C 0.0 **** 0.0
16958 C 78.6915 54.3439 16.8688 C 0.0 **** 0.0
16959 C 77.155 58.2866 19.9007 C 0.0 **** 0.0
16960 C 78.1472 59.2754 22.5018 C 0.0 **** 0.0
16961 O 79.7521 61.5308 22.9106 O 0.0 **** 0.0
16962 C 82.1169 60.4817 27.2423 C 0.0 **** 0.0
16963 C 84.7057 59.5124 26.5105 C 0.0 **** 0.0
16964 O 86.147 63.8573 23.3963 O 0.0 **** 0.0
16965 O 85.2336 59.5161 20.0844 O 0.0 **** 0.0
16966 O 87.5438 60.2671 18.7698 O 0.0 **** 0.0
16967 O 88.0573 64.6231 21.3218 O 0.0 **** 0.0
16968 C 94.9906 67.3043 25.0538 C 0.0 **** 0.0
16969 C 92.3968 68.3682 26.0005 C 0.0 **** 0.0
16970 H 83.0362 58.0368 18.8132 H 0.0 **** 0.0
16971 H 82.0324 58.3776 17.4673 H 0.0 **** 0.0
16972 H 79.1181 57.7483 17.1908 H 0.0 **** 0.0
16973 H 78.3227 56.619 18.3902 H 0.0 **** 0.0
16974 H 83.1369 60.1224 19.4627 H 0.0 **** 0.0
16975 H 85.7068 61.4482 25.0348 H 0.0 **** 0.0
16976 H 84.3766 62.3336 25.9387 H 0.0 **** 0.0
16977 H 84.0072 59.6005 24.5018 H 0.0 **** 0.0
16978 H 81.9849 59.5106 25.3448 H 0.0 **** 0.0
16979 H 81.9369 62.5066 25.703 H 0.0 **** 0.0
16980 H 80.7385 61.5126 25.0496 H 0.0 **** 0.0
16981 H 89.9498 60.3605 18.2293 H 0.0 **** 0.0
16982 H 90.3256 62.0952 17.9182 H 0.0 **** 0.0
16983 H 92.2604 60.8067 18.7932 H 0.0 **** 0.0
16984 H 91.3285 60.2889 20.2702 H 0.0 **** 0.0
16985 H 94.5937 61.5318 20.0784 H 0.0 **** 0.0
16986 H 93.8485 62.0951 18.5376 H 0.0 **** 0.0
16987 H 95.0208 64.2066 18.5859 H 0.0 **** 0.0
16988 H 96.215 62.9149 18.8528 H 0.0 **** 0.0
16989 H 96.7499 64.6048 20.6352 H 0.0 **** 0.0
16990 H 95.9469 63.2061 21.4117 H 0.0 **** 0.0
16991 H 94.6232 65.8113 20.418 H 0.0 **** 0.0
16992 H 95.1495 64.7381 23.2487 H 0.0 **** 0.0
16993 H 95.7298 66.2591 22.4323 H 0.0 **** 0.0
16994 H 90.2853 66.7342 22.3023 H 0.0 **** 0.0
16995 H 90.5052 68.2671 24.1356 H 0.0 **** 0.0
16996 H 84.336 53.419 16.7988 H 0.0 **** 0.0
16997 H 83.1465 52.1553 16.7365 H 0.0 **** 0.0
16998 H 83.1576 51.7528 19.1139 H 0.0 **** 0.0
16999 H 84.09 53.1613 19.5118 H 0.0 **** 0.0
17000 H 84.9429 51.8698 18.5998 H 0.0 **** 0.0
17001 H 79.5485 52.0589 17.311 H 0.0 **** 0.0
17002 H 81.0481 51.612 17.9201 H 0.0 **** 0.0
17003 H 80.8699 51.9274 16.1066 H 0.0 **** 0.0
17004 H 84.6203 56.4518 17.5803 H 0.0 **** 0.0
17005 H 84.8809 54.9065 18.3341 H 0.0 **** 0.0
17006 H 84.1775 56.1479 19.3399 H 0.0 **** 0.0
17007 H 78.0669 55.2074 16.6609 H 0.0 **** 0.0
17008 H 78.1444 53.6281 17.5214 H 0.0 **** 0.0
17009 H 78.8783 53.9073 15.8359 H 0.0 **** 0.0
17010 H 76.5659 58.9752 20.51 H 0.0 **** 0.0
17011 H 77.0358 57.2613 20.2568 H 0.0 **** 0.0
17012 H 76.8539 58.4676 18.8363 H 0.0 **** 0.0
17013 H 78.715 59.3054 23.4476 H 0.0 **** 0.0
17014 H 77.6095 58.3162 22.5729 H 0.0 **** 0.0
17015 H 77.3128 60.0265 22.3858 H 0.0 **** 0.0
17016 H 79.9885 62.4748 23.2368 H 0.0 **** 0.0
17017 H 82.3836 59.4871 27.7264 H 0.0 **** 0.0
17018 H 81.0549 60.7393 27.4272 H 0.0 **** 0.0
17019 H 82.7165 61.292 27.6817 H 0.0 **** 0.0
17020 H 85.6671 59.2854 26.0669 H 0.0 **** 0.0
17021 H 84.2216 58.5991 26.7682 H 0.0 **** 0.0
17022 H 84.8411 60.1194 27.3957 H 0.0 **** 0.0
17023 H 86.9469 64.4264 23.3752 H 0.0 **** 0.0
17024 H 86.0764 58.9833 20.0266 H 0.0 **** 0.0
17025 H 95.8348 66.7767 24.6408 H 0.0 **** 0.0
17026 H 94.8315 66.8608 26.0465 H 0.0 **** 0.0
17027 H 95.2154 68.3858 25.0867 H 0.0 **** 0.0
17028 H 92.6583 67.5481 26.693 H 0.0 **** 0.0
17029 H 91.3364 68.6772 26.2377 H 0.0 **** 0.0
17030 H 93.1511 69.2057 26.128 H 0.0 **** 0.0
17031 C 9.37545 20.1781 55.3003 C 0.0 **** 0.0
17032 C 9.04147 18.97 55.9133 C 0.0 **** 0.0
17033 C 9.25084 17.7234 55.2114 C 0.0 **** 0.0
17034 C 9.99871 17.7359 54.0253 C 0.0 **** 0.0
17035 C 10.7137 18.9213 53.6675 C 0.0 **** 0.0
17036 C 10.357 20.2024 54.306 C 0.0 **** 0.0
17037 C 10.0253 16.5085 53.088 C 0.0 **** 0.0
17038 C 9.29589 15.2433 53.5618 C 0.0 **** 0.0
17039 C 8.84875 15.1474 54.8923 C 0.0 **** 0.0
17040 C 8.73879 16.4281 55.7588 C 0.0 **** 0.0
17041 C 8.63179 13.8469 55.4709 C 0.0 **** 0.0
17042 C 8.60902 12.6795 54.6484 C 0.0 **** 0.0
17043 C 8.71983 12.8366 53.221 C 0.0 **** 0.0
17044 C 9.14666 14.1015 52.6994 C 0.0 **** 0.0
17045 C 9.27673 14.2578 51.2987 C 0.0 **** 0.0
17046 C 9.09692 13.1672 50.3994 C 0.0 **** 0.0
17047 C 8.53131 11.9711 50.9212 C 0.0 **** 0.0
17048 C 8.32612 11.797 52.3176 C 0.0 **** 0.0
17049 C 7.88351 11.0019 49.9869 C 0.0 **** 0.0
17050 C 8.79469 10.7774 48.7738 C 0.0 **** 0.0
17051 C 9.22671 12.1177 48.1038 C 0.0 **** 0.0
17052 C 9.51616 13.2431 49.0095 C 0.0 **** 0.0
17053 C 8.03638 9.83009 47.812 C 0.0 **** 0.0
17054 C 6.74286 10.5568 47.3419 C 0.0 **** 0.0
17055 C 5.80105 10.6772 48.4928 C 0.0 **** 0.0
17056 C 6.47831 11.4993 49.6441 C 0.0 **** 0.0
17057 C 10.2963 14.3078 48.5336 C 0.0 **** 0.0
17058 C 10.3769 14.534 47.1672 C 0.0 **** 0.0
17059 C 9.93998 13.5322 46.2728 C 0.0 **** 0.0
17060 C 9.57458 12.2575 46.7415 C 0.0 **** 0.0
17061 C 9.68103 13.8903 44.8184 C 0.0 **** 0.0
17062 C 10.2341 15.1353 44.2999 C 0.0 **** 0.0
17063 C 10.7248 16.1068 45.2143 C 0.0 **** 0.0
17064 C 10.8563 15.8219 46.6477 C 0.0 **** 0.0
17065 C 11.2176 17.4295 44.7036 C 0.0 **** 0.0
17066 C 10.4573 17.8381 43.4621 C 0.0 **** 0.0
17067 C 10.2971 16.6974 42.4033 C 0.0 **** 0.0
17068 C 10.0621 15.419 42.9117 C 0.0 **** 0.0
17069 N 9.66296 14.4724 42.0118 N 0.0 **** 0.0
17070 C 9.53195 14.6466 40.6805 C 0.0 **** 0.0
17071 C 9.92802 15.8676 40.1444 C 0.0 **** 0.0
17072 C 10.3975 16.8839 41.0107 C 0.0 **** 0.0
17073 C 10.7232 18.2449 40.4558 C 0.0 **** 0.0
17074 C 10.8951 18.2842 38.9395 C 0.0 **** 0.0
17075 C 9.84544 17.4695 38.1907 C 0.0 **** 0.0
17076 C 9.91499 16.0134 38.6577 C 0.0 **** 0.0
17077 C 8.80148 15.1934 38.0174 C 0.0 **** 0.0
17078 C 8.7672 13.8139 38.5074 C 0.0 **** 0.0
17079 C 9.12116 13.5649 39.8545 C 0.0 **** 0.0
17080 C 8.8889 12.308 40.3571 C 0.0 **** 0.0
17081 C 8.44396 11.2653 39.5461 C 0.0 **** 0.0
17082 C 8.16076 11.4547 38.2107 C 0.0 **** 0.0
17083 C 8.33244 12.7428 37.6403 C 0.0 **** 0.0
17084 C 10.9187 21.4951 53.8659 C 0.0 **** 0.0
17085 C 10.2994 22.0595 52.5683 C 0.0 **** 0.0
17086 C 8.6741 21.4359 55.7354 C 0.0 **** 0.0
17087 C 11.6031 18.8945 52.4298 C 0.0 **** 0.0
17088 C 8.29328 18.9507 57.2438 C 0.0 **** 0.0
17089 C 8.31033 13.6936 56.9502 C 0.0 **** 0.0
17090 C 8.4216 11.3254 55.2856 C 0.0 **** 0.0
17091 O 7.84937 10.5355 52.7877 O 0.0 **** 0.0
17092 C 5.24292 9.35078 49.0506 C 0.0 **** 0.0
17093 C 6.17258 9.863 46.1146 C 0.0 **** 0.0
17094 O 9.43741 11.204 45.884 O 0.0 **** 0.0
17095 O 11.2243 14.845 49.4188 O 0.0 **** 0.0
17096 O 11.2836 16.6859 47.4004 O 0.0 **** 0.0
17097 O 8.75568 13.3022 44.1995 O 0.0 **** 0.0
17098 C 7.98298 13.0531 36.1962 C 0.0 **** 0.0
17099 C 7.59586 10.3024 37.388 C 0.0 **** 0.0
17100 H 9.58491 16.9186 52.1558 H 0.0 **** 0.0
17101 H 11.0536 16.2073 52.9924 H 0.0 **** 0.0
17102 H 9.42231 16.187 56.6141 H 0.0 **** 0.0
17103 H 7.6527 16.4363 55.9906 H 0.0 **** 0.0
17104 H 9.4996 15.2418 50.9129 H 0.0 **** 0.0
17105 H 8.6611 9.47228 46.9911 H 0.0 **** 0.0
17106 H 7.76998 8.84851 48.2543 H 0.0 **** 0.0
17107 H 6.96178 11.6109 46.9414 H 0.0 **** 0.0
17108 H 4.92516 11.2402 48.1369 H 0.0 **** 0.0
17109 H 5.79256 11.48 50.5665 H 0.0 **** 0.0
17110 H 6.52322 12.5008 49.3368 H 0.0 **** 0.0
17111 H 11.1113 18.1825 45.4775 H 0.0 **** 0.0
17112 H 12.2902 17.3914 44.3903 H 0.0 **** 0.0
17113 H 10.7913 18.8196 43.0749 H 0.0 **** 0.0
17114 H 9.45041 18.1055 43.8125 H 0.0 **** 0.0
17115 H 9.9395 18.9351 40.7203 H 0.0 **** 0.0
17116 H 11.6107 18.5314 41.0152 H 0.0 **** 0.0
17117 H 11.9601 17.927 38.6361 H 0.0 **** 0.0
17118 H 10.7638 19.3384 38.5376 H 0.0 **** 0.0
17119 H 10.0945 17.4898 37.0911 H 0.0 **** 0.0
17120 H 8.8366 17.8288 38.382 H 0.0 **** 0.0
17121 H 10.8844 15.6391 38.298 H 0.0 **** 0.0
17122 H 7.79523 15.6529 38.2913 H 0.0 **** 0.0
17123 H 8.9563 15.2517 36.947 H 0.0 **** 0.0
17124 H 8.99187 12.1123 41.4101 H 0.0 **** 0.0
17125 H 8.23036 10.2694 39.9585 H 0.0 **** 0.0
17126 H 11.988 21.3761 53.7072 H 0.0 **** 0.0
17127 H 10.7754 22.2893 54.6532 H 0.0 **** 0.0
17128 H 9.31762 22.5201 52.7981 H 0.0 **** 0.0
17129 H 10.0836 21.2472 51.7932 H 0.0 **** 0.0
17130 H 10.9244 22.8266 52.1085 H 0.0 **** 0.0
17131 H 7.67733 21.2176 56.2035 H 0.0 **** 0.0
17132 H 8.49998 22.1458 54.8538 H 0.0 **** 0.0
17133 H 9.28709 21.856 56.5372 H 0.0 **** 0.0
17134 H 12.4421 19.6023 52.5227 H 0.0 **** 0.0
17135 H 11.0577 19.0405 51.4882 H 0.0 **** 0.0
17136 H 12.1181 17.891 52.3528 H 0.0 **** 0.0
17137 H 8.50952 18.0185 57.8209 H 0.0 **** 0.0
17138 H 7.20256 19.004 57.0597 H 0.0 **** 0.0
17139 H 8.55532 19.8024 57.8887 H 0.0 **** 0.0
17140 H 9.27095 13.3634 57.4785 H 0.0 **** 0.0
17141 H 7.47214 13.0038 57.0423 H 0.0 **** 0.0
17142 H 7.9569 14.6265 57.4691 H 0.0 **** 0.0
17143 H 7.42967 10.8829 55.1134 H 0.0 **** 0.0
17144 H 8.72641 11.3195 56.3715 H 0.0 **** 0.0
17145 H 9.23163 10.6711 54.8613 H 0.0 **** 0.0
17146 H 7.87385 9.77795 52.1078 H 0.0 **** 0.0
17147 H 4.85631 8.73883 48.2076 H 0.0 **** 0.0
17148 H 4.39528 9.55719 49.7888 H 0.0 **** 0.0
17149 H 6.03551 8.78357 49.6287 H 0.0 **** 0.0
17150 H 6.93248 9.96845 45.2678 H 0.0 **** 0.0
17151 H 5.30865 10.321 45.7408 H 0.0 **** 0.0
17152 H 6.0472 8.77345 46.232 H 0.0 **** 0.0
17153 H 9.90177 11.3435 45.0026 H 0.0 **** 0.0
17154 H 12.1289 15.1608 49.0262 H 0.0 **** 0.0
17155 H 7.16994 13.8283 36.1158 H 0.0 **** 0.0
17156 H 7.58089 12.1356 35.6668 H 0.0 **** 0.0
17157 H 8.85256 13.3771 35.5921 H 0.0 **** 0.0
17158 H 6.69454 10.6566 36.8624 H 0.0 **** 0.0
17159 H 7.18272 9.5336 38.0739 H 0.0 **** 0.0
17160 H 8.2992 9.87926 36.7033 H 0.0 **** 0.0
17161 C 94.6134 14.1336 14.0316 C 0.0 **** 0.0
17162 C 94.6385 13.8505 12.6242 C 0.0 **** 0.0
17163 C 95.859 13.7209 11.93 C 0.0 **** 0.0
17164 C 97.0698 13.8604 12.613 C 0.0 **** 0.0
17165 C 97.0612 14.2517 13.9863 C 0.0 **** 0.0
17166 C 95.8521 14.3994 14.6877 C 0.0 **** 0.0
17167 C 98.3651 13.5242 11.9449 C 0.0 **** 0.0
17168 C 98.1679 12.85 10.5889 C 0.0 **** 0.0
17169 C 97.1127 13.2332 9.78015 C 0.0 **** 0.0
17170 C 95.8423 13.6595 10.4286 C 0.0 **** 0.0
17171 C 97.2062 13.0262 8.3647 C 0.0 **** 0.0
17172 C 98.2854 12.259 7.85382 C 0.0 **** 0.0
17173 C 99.3797 11.9126 8.68544 C 0.0 **** 0.0
17174 C 99.2239 12.0917 10.0432 C 0.0 **** 0.0
17175 C 100.115 11.3867 10.8603 C 0.0 **** 0.0
17176 C 101.407 11.0078 10.4212 C 0.0 **** 0.0
17177 C 101.671 11.102 9.04382 C 0.0 **** 0.0
17178 C 100.639 11.4859 8.15686 C 0.0 **** 0.0
17179 C 103.053 10.8427 8.52613 C 0.0 **** 0.0
17180 C 103.8 9.7298 9.28523 C 0.0 **** 0.0
17181 C 103.478 9.74213 10.7623 C 0.0 **** 0.0
17182 C 102.399 10.4687 11.3061 C 0.0 **** 0.0
17183 C 105.302 9.72087 8.99631 C 0.0 **** 0.0
17184 C 105.549 10.3374 7.63244 C 0.0 **** 0.0
17185 C 105.215 11.7637 7.6199 C 0.0 **** 0.0
17186 C 103.848 12.1417 8.29668 C 0.0 **** 0.0
17187 C 102.388 10.6689 12.7156 C 0.0 **** 0.0
17188 C 103.166 9.84522 13.5927 C 0.0 **** 0.0
17189 C 104.169 9.01085 13.0622 C 0.0 **** 0.0
17190 C 104.266 8.93022 11.6239 C 0.0 **** 0.0
17191 C 105.305 8.66374 13.9581 C 0.0 **** 0.0
17192 C 105.113 8.57026 15.4246 C 0.0 **** 0.0
17193 C 103.942 9.14065 15.9546 C 0.0 **** 0.0
17194 C 102.919 9.7486 15.0639 C 0.0 **** 0.0
17195 C 104.025 9.48773 17.3775 C 0.0 **** 0.0
17196 C 104.77 8.4718 18.2933 C 0.0 **** 0.0
17197 C 105.984 7.90249 17.6603 C 0.0 **** 0.0
17198 C 106.098 7.9428 16.2722 C 0.0 **** 0.0
17199 N 107.204 7.42302 15.691 N 0.0 **** 0.0
17200 C 108.215 6.90338 16.4232 C 0.0 **** 0.0
17201 C 108.157 6.83641 17.8313 C 0.0 **** 0.0
17202 C 107.012 7.32903 18.4268 C 0.0 **** 0.0
17203 C 106.851 7.26424 19.9585 C 0.0 **** 0.0
17204 C 107.934 6.52998 20.7482 C 0.0 **** 0.0
17205 C 109.3 6.80628 20.0693 C 0.0 **** 0.0
17206 C 109.303 6.24768 18.6381 C 0.0 **** 0.0
17207 C 110.64 6.52794 17.9766 C 0.0 **** 0.0
17208 C 110.564 6.23889 16.4774 C 0.0 **** 0.0
17209 C 109.365 6.5223 15.7387 C 0.0 **** 0.0
17210 C 109.406 6.42712 14.3438 C 0.0 **** 0.0
17211 C 110.512 6.02056 13.6834 C 0.0 **** 0.0
17212 C 111.711 5.71418 14.3793 C 0.0 **** 0.0
17213 C 111.759 5.81789 15.8104 C 0.0 **** 0.0
17214 C 95.8813 14.8802 16.1416 C 0.0 **** 0.0
17215 C 95.7811 16.38 16.3719 C 0.0 **** 0.0
17216 C 93.3469 13.8161 14.809 C 0.0 **** 0.0
17217 C 98.416 14.576 14.6134 C 0.0 **** 0.0
17218 C 93.3885 13.7525 11.792 C 0.0 **** 0.0
17219 C 96.1018 13.6645 7.51535 C 0.0 **** 0.0
17220 C 98.2149 11.7286 6.4692 C 0.0 **** 0.0
17221 O 100.927 11.7901 6.83434 O 0.0 **** 0.0
17222 C 105.389 12.4141 6.25055 C 0.0 **** 0.0
17223 C 104.768 9.53831 6.51641 C 0.0 **** 0.0
17224 O 105.013 7.90541 11.0286 O 0.0 **** 0.0
17225 O 101.539 11.6578 13.2099 O 0.0 **** 0.0
17226 O 101.878 10.1071 15.573 O 0.0 **** 0.0
17227 O 106.424 8.59107 13.4872 O 0.0 **** 0.0
17228 C 113.017 5.51909 16.6194 C 0.0 **** 0.0
17229 C 112.891 5.14364 13.6379 C 0.0 **** 0.0
17230 H 98.9496 14.4742 11.7414 H 0.0 **** 0.0
17231 H 98.9876 12.9055 12.6662 H 0.0 **** 0.0
17232 H 95.0667 12.8849 10.1125 H 0.0 **** 0.0
17233 H 95.6025 14.6722 10.0573 H 0.0 **** 0.0
17234 H 99.7236 11.0619 11.8504 H 0.0 **** 0.0
17235 H 105.85 10.3433 9.74503 H 0.0 **** 0.0
17236 H 105.68 8.66133 8.9645 H 0.0 **** 0.0
17237 H 106.636 10.2058 7.36325 H 0.0 **** 0.0
17238 H 105.999 12.2022 8.24169 H 0.0 **** 0.0
17239 H 103.26 12.8805 7.66921 H 0.0 **** 0.0
17240 H 104.07 12.5947 9.21223 H 0.0 **** 0.0
17241 H 104.511 10.4919 17.4989 H 0.0 **** 0.0
17242 H 103.0 9.57646 17.7601 H 0.0 **** 0.0
17243 H 104.056 7.62918 18.5855 H 0.0 **** 0.0
17244 H 105.03 9.14004 19.1585 H 0.0 **** 0.0
17245 H 106.819 8.32539 20.3799 H 0.0 **** 0.0
17246 H 105.89 6.8534 20.2939 H 0.0 **** 0.0
17247 H 107.703 5.41093 20.846 H 0.0 **** 0.0
17248 H 107.934 6.92245 21.794 H 0.0 **** 0.0
17249 H 110.074 6.3173 20.6932 H 0.0 **** 0.0
17250 H 109.389 7.88586 20.105 H 0.0 **** 0.0
17251 H 109.122 5.15719 18.6587 H 0.0 **** 0.0
17252 H 110.933 7.63186 18.1552 H 0.0 **** 0.0
17253 H 111.344 5.82056 18.4928 H 0.0 **** 0.0
17254 H 108.569 6.76282 13.7359 H 0.0 **** 0.0
17255 H 110.427 5.97069 12.6373 H 0.0 **** 0.0
17256 H 96.8089 14.5359 16.6705 H 0.0 **** 0.0
17257 H 94.9825 14.4423 16.689 H 0.0 **** 0.0
17258 H 95.7009 16.6188 17.4558 H 0.0 **** 0.0
17259 H 94.8068 16.7373 15.9487 H 0.0 **** 0.0
17260 H 96.6867 16.885 15.9997 H 0.0 **** 0.0
17261 H 92.7398 14.7382 14.9732 H 0.0 **** 0.0
17262 H 93.5683 13.2966 15.7799 H 0.0 **** 0.0
17263 H 92.7055 13.0797 14.276 H 0.0 **** 0.0
17264 H 99.274 14.7094 13.9211 H 0.0 **** 0.0
17265 H 98.8258 13.6933 15.2345 H 0.0 **** 0.0
17266 H 98.3607 15.5278 15.2066 H 0.0 **** 0.0
17267 H 93.1371 12.7043 11.4713 H 0.0 **** 0.0
17268 H 93.4822 14.437 10.8864 H 0.0 **** 0.0
17269 H 92.5162 14.0999 12.4132 H 0.0 **** 0.0
17270 H 95.2287 12.984 7.53839 H 0.0 **** 0.0
17271 H 96.3856 13.7672 6.44921 H 0.0 **** 0.0
17272 H 95.7777 14.6834 7.87139 H 0.0 **** 0.0
17273 H 98.341 12.459 5.73741 H 0.0 **** 0.0
17274 H 97.1657 11.2741 6.22673 H 0.0 **** 0.0
17275 H 98.9003 10.8678 6.27764 H 0.0 **** 0.0
17276 H 101.684 11.2689 6.45073 H 0.0 **** 0.0
17277 H 106.317 12.1421 5.72297 H 0.0 **** 0.0
17278 H 105.301 13.4894 6.33639 H 0.0 **** 0.0
17279 H 104.565 12.1119 5.62038 H 0.0 **** 0.0
17280 H 105.105 8.50333 6.60544 H 0.0 **** 0.0
17281 H 105.006 9.96454 5.48475 H 0.0 **** 0.0
17282 H 103.618 9.62445 6.58377 H 0.0 **** 0.0
17283 H 105.524 7.34198 11.6622 H 0.0 **** 0.0
17284 H 101.756 11.9562 14.155 H 0.0 **** 0.0
17285 H 112.814 4.63996 17.2582 H 0.0 **** 0.0
17286 H 113.23 6.4336 17.2165 H 0.0 **** 0.0
17287 H 113.876 5.37692 15.9815 H 0.0 **** 0.0
17288 H 113.114 4.09428 14.0093 H 0.0 **** 0.0
17289 H 113.824 5.74272 13.7581 H 0.0 **** 0.0
17290 H 112.726 5.11873 12.5306 H 0.0 **** 0.0
17291 C 47.3525 29.4859 19.6541 C 0.0 **** 0.0
17292 C 46.6089 29.5491 18.4365 C 0.0 **** 0.0
17293 C 46.8425 28.594 17.3785 C 0.0 **** 0.0
17294 C 47.7772 27.5918 17.5744 C 0.0 **** 0.0
17295 C 48.4496 27.4235 18.8253 C 0.0 **** 0.0
17296 C 48.2582 28.4118 19.8561 C 0.0 **** 0.0
17297 C 48.0153 26.5626 16.5006 C 0.0 **** 0.0
17298 C 47.2299 26.5784 15.205 C 0.0 **** 0.0
17299 C 46.2878 27.6045 15.0381 C 0.0 **** 0.0
17300 C 46.0323 28.6603 16.1072 C 0.0 **** 0.0
17301 C 45.4892 27.6608 13.862 C 0.0 **** 0.0
17302 C 45.6915 26.6383 12.881 C 0.0 **** 0.0
17303 C 46.5298 25.5302 13.1297 C 0.0 **** 0.0
17304 C 47.3629 25.5439 14.2602 C 0.0 **** 0.0
17305 C 48.316 24.529 14.4094 C 0.0 **** 0.0
17306 C 48.3922 23.4264 13.5288 C 0.0 **** 0.0
17307 C 47.5965 23.4751 12.3382 C 0.0 **** 0.0
17308 C 46.5615 24.4316 12.1965 C 0.0 **** 0.0
17309 C 47.9279 22.5612 11.1375 C 0.0 **** 0.0
17310 C 49.3036 21.9299 11.2495 C 0.0 **** 0.0
17311 C 49.57 21.486 12.6628 C 0.0 **** 0.0
17312 C 49.226 22.2906 13.778 C 0.0 **** 0.0
17313 C 50.4484 22.7755 10.649 C 0.0 **** 0.0
17314 C 50.1383 23.3101 9.22488 C 0.0 **** 0.0
17315 C 48.8403 22.9094 8.71254 C 0.0 **** 0.0
17316 C 47.7045 23.2176 9.70903 C 0.0 **** 0.0
17317 C 49.5608 21.8266 15.0906 C 0.0 **** 0.0
17318 C 50.1388 20.5157 15.2507 C 0.0 **** 0.0
17319 C 50.3146 19.7109 14.1222 C 0.0 **** 0.0
17320 C 50.177 20.2484 12.8368 C 0.0 **** 0.0
17321 C 50.6881 18.3309 14.309 C 0.0 **** 0.0
17322 C 51.5535 17.9503 15.4392 C 0.0 **** 0.0
17323 C 51.4235 18.7242 16.6091 C 0.0 **** 0.0
17324 C 50.5984 19.9593 16.5567 C 0.0 **** 0.0
17325 C 51.8877 18.1571 17.8943 C 0.0 **** 0.0
17326 C 53.1323 17.2638 17.7162 C 0.0 **** 0.0
17327 C 53.1875 16.4128 16.4792 C 0.0 **** 0.0
17328 C 52.441 16.8382 15.3717 C 0.0 **** 0.0
17329 N 52.4693 16.0936 14.2285 N 0.0 **** 0.0
17330 C 53.2865 15.0048 14.0772 C 0.0 **** 0.0
17331 C 54.152 14.6165 15.1199 C 0.0 **** 0.0
17332 C 54.0966 15.3421 16.3725 C 0.0 **** 0.0
17333 C 55.0405 15.0025 17.4671 C 0.0 **** 0.0
17334 C 55.7277 13.6394 17.2844 C 0.0 **** 0.0
17335 C 56.1432 13.3722 15.8513 C 0.0 **** 0.0
17336 C 54.9121 13.3172 14.9815 C 0.0 **** 0.0
17337 C 55.2845 12.948 13.5092 C 0.0 **** 0.0
17338 C 54.1272 13.188 12.5278 C 0.0 **** 0.0
17339 C 53.2149 14.2418 12.8453 C 0.0 **** 0.0
17340 C 52.2048 14.5509 11.9664 C 0.0 **** 0.0
17341 C 52.0292 13.8287 10.7854 C 0.0 **** 0.0
17342 C 52.9389 12.8043 10.4001 C 0.0 **** 0.0
17343 C 54.0496 12.4916 11.2416 C 0.0 **** 0.0
17344 C 49.1456 28.3539 21.1395 C 0.0 **** 0.0
17345 C 50.4425 29.2152 20.948 C 0.0 **** 0.0
17346 C 47.1693 30.5927 20.6518 C 0.0 **** 0.0
17347 C 49.3615 26.1994 19.0108 C 0.0 **** 0.0
17348 C 45.5365 30.5684 18.2329 C 0.0 **** 0.0
17349 C 44.4371 28.6959 13.6204 C 0.0 **** 0.0
17350 C 45.0918 26.7788 11.5275 C 0.0 **** 0.0
17351 O 45.3543 24.0699 11.5602 O 0.0 **** 0.0
17352 C 48.7609 21.4849 8.2021 C 0.0 **** 0.0
17353 C 51.3012 22.9493 8.25253 C 0.0 **** 0.0
17354 O 50.4903 19.4014 11.7426 O 0.0 **** 0.0
17355 O 48.976 22.5898 16.1569 O 0.0 **** 0.0
17356 O 50.3455 20.4959 17.6097 O 0.0 **** 0.0
17357 O 50.2531 17.4622 13.573 O 0.0 **** 0.0
17358 C 55.126 11.4994 10.8421 C 0.0 **** 0.0
17359 C 52.7832 12.184 9.00934 C 0.0 **** 0.0
17360 H 49.0749 26.5851 16.1283 H 0.0 **** 0.0
17361 H 47.7754 25.5864 17.0071 H 0.0 **** 0.0
17362 H 44.9662 28.5574 16.4618 H 0.0 **** 0.0
17363 H 46.1955 29.6196 15.6349 H 0.0 **** 0.0
17364 H 49.0486 24.5758 15.1977 H 0.0 **** 0.0
17365 H 50.6339 23.6503 11.3454 H 0.0 **** 0.0
17366 H 51.3713 22.118 10.6223 H 0.0 **** 0.0
17367 H 50.1418 24.4204 9.2804 H 0.0 **** 0.0
17368 H 48.6304 23.5621 7.80214 H 0.0 **** 0.0
17369 H 46.7274 22.835 9.26847 H 0.0 **** 0.0
17370 H 47.6129 24.3385 9.77497 H 0.0 **** 0.0
17371 H 52.09 18.9373 18.6318 H 0.0 **** 0.0
17372 H 51.0698 17.5433 18.282 H 0.0 **** 0.0
17373 H 53.0753 16.6224 18.6268 H 0.0 **** 0.0
17374 H 54.0524 17.8938 17.6665 H 0.0 **** 0.0
17375 H 55.8611 15.7933 17.4327 H 0.0 **** 0.0
17376 H 54.5078 14.9157 18.4117 H 0.0 **** 0.0
17377 H 54.9792 12.8803 17.5383 H 0.0 **** 0.0
17378 H 56.6387 13.5492 17.9918 H 0.0 **** 0.0
17379 H 56.697 12.4236 15.7645 H 0.0 **** 0.0
17380 H 56.8766 14.1734 15.53 H 0.0 **** 0.0
17381 H 54.2654 12.5172 15.3223 H 0.0 **** 0.0
17382 H 56.1749 13.5737 13.2873 H 0.0 **** 0.0
17383 H 55.5912 11.8827 13.51 H 0.0 **** 0.0
17384 H 51.5312 15.3812 12.1184 H 0.0 **** 0.0
17385 H 51.3546 14.1764 9.99454 H 0.0 **** 0.0
17386 H 49.381 27.3187 21.4437 H 0.0 **** 0.0
17387 H 48.575 28.7731 22.033 H 0.0 **** 0.0
17388 H 50.2399 30.3092 21.0661 H 0.0 **** 0.0
17389 H 50.9241 29.0881 19.981 H 0.0 **** 0.0
17390 H 51.223 28.8596 21.6636 H 0.0 **** 0.0
17391 H 47.172 31.6188 20.2209 H 0.0 **** 0.0
17392 H 47.9715 30.6832 21.3502 H 0.0 **** 0.0
17393 H 46.2249 30.4307 21.1955 H 0.0 **** 0.0
17394 H 49.9622 25.9969 18.069 H 0.0 **** 0.0
17395 H 48.8091 25.2757 19.3095 H 0.0 **** 0.0
17396 H 50.1856 26.3647 19.7093 H 0.0 **** 0.0
17397 H 44.5586 30.012 18.1854 H 0.0 **** 0.0
17398 H 45.7358 31.2044 17.3129 H 0.0 **** 0.0
17399 H 45.3298 31.2779 19.0435 H 0.0 **** 0.0
17400 H 43.4649 28.2559 13.3828 H 0.0 **** 0.0
17401 H 44.7852 29.3964 12.8695 H 0.0 **** 0.0
17402 H 44.2017 29.3018 14.4553 H 0.0 **** 0.0
17403 H 45.8221 26.4743 10.7635 H 0.0 **** 0.0
17404 H 44.8041 27.8244 11.241 H 0.0 **** 0.0
17405 H 44.2128 26.1156 11.4326 H 0.0 **** 0.0
17406 H 45.3669 23.1338 11.2021 H 0.0 **** 0.0
17407 H 49.3964 21.363 7.30611 H 0.0 **** 0.0
17408 H 47.6844 21.2613 7.94848 H 0.0 **** 0.0
17409 H 49.0342 20.7756 8.9713 H 0.0 **** 0.0
17410 H 52.1668 23.5562 8.54784 H 0.0 **** 0.0
17411 H 50.9595 23.1637 7.2315 H 0.0 **** 0.0
17412 H 51.5823 21.9026 8.31027 H 0.0 **** 0.0
17413 H 50.4569 19.7975 10.8169 H 0.0 **** 0.0
17414 H 48.9742 22.2245 17.0787 H 0.0 **** 0.0
17415 H 56.0849 11.903 11.0456 H 0.0 **** 0.0
17416 H 55.061 11.1968 9.78038 H 0.0 **** 0.0
17417 H 55.0119 10.6169 11.5116 H 0.0 **** 0.0
17418 H 53.6082 12.4551 8.33717 H 0.0 **** 0.0
17419 H 51.8369 12.4807 8.56922 H 0.0 **** 0.0
17420 H 52.7969 11.0747 9.10193 H 0.0 **** 0.0
17421 C 101.639 25.6521 24.79 C 0.0 **** 0.0
17422 C 101.663 26.9022 24.069 C 0.0 **** 0.0
17423 C 100.898 28.0102 24.5714 C 0.0 **** 0.0
17424 C 100.211 27.899 25.8102 C 0.0 **** 0.0
17425 C 100.142 26.6573 26.488 C 0.0 **** 0.0
17426 C 100.939 25.5531 26.0249 C 0.0 **** 0.0
17427 C 99.4247 29.1487 26.393 C 0.0 **** 0.0
17428 C 99.3718 30.4295 25.5659 C 0.0 **** 0.0
17429 C 99.8838 30.4408 24.2613 C 0.0 **** 0.0
17430 C 100.719 29.298 23.7442 C 0.0 **** 0.0
17431 C 99.6416 31.5714 23.3814 C 0.0 **** 0.0
17432 C 98.8637 32.6524 23.7827 C 0.0 **** 0.0
17433 C 98.4052 32.6543 25.1057 C 0.0 **** 0.0
17434 C 98.5943 31.5365 25.9905 C 0.0 **** 0.0
17435 C 97.9807 31.5758 27.2446 C 0.0 **** 0.0
17436 C 97.2594 32.6742 27.6981 C 0.0 **** 0.0
17437 C 97.3006 33.861 26.9363 C 0.0 **** 0.0
17438 C 97.8569 33.8573 25.6272 C 0.0 **** 0.0
17439 C 96.626 35.1127 27.4491 C 0.0 **** 0.0
17440 C 96.7999 35.233 29.0316 C 0.0 **** 0.0
17441 C 96.4775 33.9027 29.6996 C 0.0 **** 0.0
17442 C 96.6249 32.6661 28.9463 C 0.0 **** 0.0
17443 C 95.8806 36.464 29.4374 C 0.0 **** 0.0
17444 C 94.4023 36.3311 29.0234 C 0.0 **** 0.0
17445 C 94.1456 35.3807 27.9247 C 0.0 **** 0.0
17446 C 95.239 35.4418 26.8386 C 0.0 **** 0.0
17447 C 96.1519 31.4471 29.5509 C 0.0 **** 0.0
17448 C 95.7335 31.4175 30.8874 C 0.0 **** 0.0
17449 C 95.6828 32.5981 31.6384 C 0.0 **** 0.0
17450 C 96.1778 33.8317 31.0812 C 0.0 **** 0.0
17451 C 95.0176 32.5253 33.0153 C 0.0 **** 0.0
17452 C 94.4748 31.2496 33.5968 C 0.0 **** 0.0
17453 C 94.7078 30.0803 32.8435 C 0.0 **** 0.0
17454 C 95.3908 30.1501 31.5114 C 0.0 **** 0.0
17455 C 94.1176 28.7118 33.2491 C 0.0 **** 0.0
17456 C 93.7167 28.6177 34.7384 C 0.0 **** 0.0
17457 C 93.4354 29.9335 35.438 C 0.0 **** 0.0
17458 C 93.8257 31.1909 34.8622 C 0.0 **** 0.0
17459 N 93.5842 32.3191 35.5792 N 0.0 **** 0.0
17460 C 92.9389 32.3132 36.7977 C 0.0 **** 0.0
17461 C 92.5571 31.0911 37.3801 C 0.0 **** 0.0
17462 C 92.8505 29.8937 36.7267 C 0.0 **** 0.0
17463 C 92.4281 28.5618 37.386 C 0.0 **** 0.0
17464 C 92.0811 28.5967 38.8812 C 0.0 **** 0.0
17465 C 91.3248 29.857 39.2277 C 0.0 **** 0.0
17466 C 92.1514 31.0825 38.8315 C 0.0 **** 0.0
17467 C 91.3374 32.2729 39.2151 C 0.0 **** 0.0
17468 C 91.8976 33.5541 38.6479 C 0.0 **** 0.0
17469 C 92.7425 33.5129 37.4967 C 0.0 **** 0.0
17470 C 93.3031 34.7217 37.0546 C 0.0 **** 0.0
17471 C 92.997 35.956 37.6513 C 0.0 **** 0.0
17472 C 92.182 35.9986 38.7994 C 0.0 **** 0.0
17473 C 91.6823 34.7943 39.3241 C 0.0 **** 0.0
17474 C 101.133 24.2804 26.8852 C 0.0 **** 0.0
17475 C 100.165 23.134 26.5131 C 0.0 **** 0.0
17476 C 102.321 24.4571 24.1327 C 0.0 **** 0.0
17477 C 99.1582 26.444 27.6383 C 0.0 **** 0.0
17478 C 102.4 27.0704 22.774 C 0.0 **** 0.0
17479 C 100.442 31.6354 22.0743 C 0.0 **** 0.0
17480 C 98.2332 33.4668 22.667 C 0.0 **** 0.0
17481 O 97.965 35.0247 24.8927 O 0.0 **** 0.0
17482 C 92.7626 35.5074 27.2008 C 0.0 **** 0.0
17483 C 93.8891 37.7803 28.7726 C 0.0 **** 0.0
17484 O 96.4287 34.9023 31.986 O 0.0 **** 0.0
17485 O 95.8279 30.3401 28.7637 O 0.0 **** 0.0
17486 O 95.7114 29.1139 30.9862 O 0.0 **** 0.0
17487 O 94.8234 33.5998 33.5859 O 0.0 **** 0.0
17488 C 90.8847 34.7362 40.6485 C 0.0 **** 0.0
17489 C 91.7036 37.3214 39.3265 C 0.0 **** 0.0
17490 H 98.3496 28.8771 26.4364 H 0.0 **** 0.0
17491 H 99.7355 29.3141 27.4142 H 0.0 **** 0.0
17492 H 101.768 29.6572 23.6292 H 0.0 **** 0.0
17493 H 100.118 28.9906 22.827 H 0.0 **** 0.0
17494 H 98.0946 30.7175 27.921 H 0.0 **** 0.0
17495 H 95.9286 36.7453 30.4956 H 0.0 **** 0.0
17496 H 96.3682 37.3133 28.9523 H 0.0 **** 0.0
17497 H 93.855 35.9183 29.8968 H 0.0 **** 0.0
17498 H 94.1651 34.3563 28.3578 H 0.0 **** 0.0
17499 H 95.2826 36.4519 26.3563 H 0.0 **** 0.0
17500 H 94.9633 34.8047 25.9795 H 0.0 **** 0.0
17501 H 93.2164 28.5308 32.6672 H 0.0 **** 0.0
17502 H 94.8205 27.8465 33.0265 H 0.0 **** 0.0
17503 H 94.5767 28.2142 35.3599 H 0.0 **** 0.0
17504 H 92.838 27.9108 34.8258 H 0.0 **** 0.0
17505 H 91.5325 28.2525 36.8046 H 0.0 **** 0.0
17506 H 93.2861 27.8758 37.2614 H 0.0 **** 0.0
17507 H 92.9996 28.512 39.395 H 0.0 **** 0.0
17508 H 91.4383 27.705 39.1101 H 0.0 **** 0.0
17509 H 91.2056 29.8244 40.3438 H 0.0 **** 0.0
17510 H 90.3378 29.8672 38.6889 H 0.0 **** 0.0
17511 H 93.0889 31.1054 39.4524 H 0.0 **** 0.0
17512 H 90.3432 32.2135 38.8413 H 0.0 **** 0.0
17513 H 91.3186 32.2525 40.3157 H 0.0 **** 0.0
17514 H 93.9654 34.766 36.2189 H 0.0 **** 0.0
17515 H 93.4071 36.8375 37.2077 H 0.0 **** 0.0
17516 H 101.088 24.5589 27.9196 H 0.0 **** 0.0
17517 H 102.167 23.9402 26.8133 H 0.0 **** 0.0
17518 H 99.1147 23.3988 26.6561 H 0.0 **** 0.0
17519 H 100.383 22.216 27.1077 H 0.0 **** 0.0
17520 H 100.325 22.7859 25.4743 H 0.0 **** 0.0
17521 H 101.794 24.3292 23.1855 H 0.0 **** 0.0
17522 H 102.07 23.4639 24.6518 H 0.0 **** 0.0
17523 H 103.422 24.6244 24.1194 H 0.0 **** 0.0
17524 H 98.6064 27.3212 27.9631 H 0.0 **** 0.0
17525 H 99.6774 26.0654 28.5721 H 0.0 **** 0.0
17526 H 98.4032 25.6484 27.2657 H 0.0 **** 0.0
17527 H 103.168 27.8401 22.8869 H 0.0 **** 0.0
17528 H 101.7 27.4629 21.9617 H 0.0 **** 0.0
17529 H 102.776 26.1297 22.3912 H 0.0 **** 0.0
17530 H 100.193 30.7586 21.4352 H 0.0 **** 0.0
17531 H 101.527 31.5054 22.2586 H 0.0 **** 0.0
17532 H 100.405 32.6234 21.5227 H 0.0 **** 0.0
17533 H 97.316 34.0062 22.9532 H 0.0 **** 0.0
17534 H 97.9939 32.8423 21.7573 H 0.0 **** 0.0
17535 H 99.0587 34.1977 22.4032 H 0.0 **** 0.0
17536 H 97.8108 35.8691 25.3848 H 0.0 **** 0.0
17537 H 91.9528 35.5061 28.0076 H 0.0 **** 0.0
17538 H 92.6065 34.5682 26.5587 H 0.0 **** 0.0
17539 H 92.6387 36.4891 26.6952 H 0.0 **** 0.0
17540 H 94.3377 38.4609 29.5031 H 0.0 **** 0.0
17541 H 92.7951 37.8241 28.976 H 0.0 **** 0.0
17542 H 94.1937 38.1201 27.7692 H 0.0 **** 0.0
17543 H 97.1397 35.6015 31.7716 H 0.0 **** 0.0
17544 H 95.6946 30.5234 27.79 H 0.0 **** 0.0
17545 H 89.86 34.3697 40.4678 H 0.0 **** 0.0
17546 H 90.8215 35.7655 41.0438 H 0.0 **** 0.0
17547 H 91.4081 34.083 41.4038 H 0.0 **** 0.0
17548 H 90.6057 37.3375 39.3388 H 0.0 **** 0.0
17549 H 92.0582 38.1484 38.7215 H 0.0 **** 0.0
17550 H 92.0516 37.4392 40.3857 H 0.0 **** 0.0
17551 C 77.2793 21.0339 73.1299 C 0.0 **** 0.0
17552 C 76.2316 20.8138 74.0561 C 0.0 **** 0.0
17553 C 75.3408 19.7212 73.8647 C 0.0 **** 0.0
17554 C 75.638 18.7456 72.8723 C 0.0 **** 0.0
17555 C 76.7282 18.9392 71.9609 C 0.0 **** 0.0
17556 C 77.507 20.1347 72.0513 C 0.0 **** 0.0
17557 C 74.7836 17.5152 72.7548 C 0.0 **** 0.0
17558 C 73.3295 17.6638 73.2421 C 0.0 **** 0.0
17559 C 72.9508 18.7497 74.0893 C 0.0 **** 0.0
17560 C 74.0731 19.6485 74.7149 C 0.0 **** 0.0
17561 C 71.5969 19.0445 74.3333 C 0.0 **** 0.0
17562 C 70.6253 18.1922 73.7585 C 0.0 **** 0.0
17563 C 70.9906 16.9561 73.1868 C 0.0 **** 0.0
17564 C 72.3294 16.7076 72.8726 C 0.0 **** 0.0
17565 C 72.6255 15.4929 72.1819 C 0.0 **** 0.0
17566 C 71.6387 14.5888 71.7265 C 0.0 **** 0.0
17567 C 70.3063 15.0826 71.7614 C 0.0 **** 0.0
17568 C 69.9842 16.022 72.7362 C 0.0 **** 0.0
17569 C 69.2005 14.472 70.9279 C 0.0 **** 0.0
17570 C 69.8147 13.5691 69.8318 C 0.0 **** 0.0
17571 C 70.909 12.6395 70.3593 C 0.0 **** 0.0
17572 C 71.8972 13.3371 71.1261 C 0.0 **** 0.0
17573 C 68.705 13.0184 68.9986 C 0.0 **** 0.0
17574 C 67.9094 14.1777 68.3394 C 0.0 **** 0.0
17575 C 67.3111 15.097 69.3207 C 0.0 **** 0.0
17576 C 68.4701 15.6269 70.2389 C 0.0 **** 0.0
17577 C 73.0881 12.6216 71.4485 C 0.0 **** 0.0
17578 C 73.2982 11.318 70.9243 C 0.0 **** 0.0
17579 C 72.2453 10.628 70.2279 C 0.0 **** 0.0
17580 C 71.0002 11.2788 70.0569 C 0.0 **** 0.0
17581 C 72.4982 9.30261 69.6672 C 0.0 **** 0.0
17582 C 73.7486 8.54254 70.0539 C 0.0 **** 0.0
17583 C 74.6645 9.17506 70.8974 C 0.0 **** 0.0
17584 C 74.6071 10.6167 71.0857 C 0.0 **** 0.0
17585 C 75.7644 8.38917 71.5312 C 0.0 **** 0.0
17586 C 75.518 6.88831 71.5792 C 0.0 **** 0.0
17587 C 74.9694 6.45187 70.2219 C 0.0 **** 0.0
17588 C 73.9702 7.24006 69.6275 C 0.0 **** 0.0
17589 N 73.3012 6.79571 68.512 N 0.0 **** 0.0
17590 C 73.5551 5.58283 67.9609 C 0.0 **** 0.0
17591 C 74.5933 4.80235 68.5191 C 0.0 **** 0.0
17592 C 75.2556 5.20221 69.6628 C 0.0 **** 0.0
17593 C 76.3189 4.31273 70.2793 C 0.0 **** 0.0
17594 C 76.304 2.89756 69.7988 C 0.0 **** 0.0
17595 C 76.1672 2.87684 68.3095 C 0.0 **** 0.0
17596 C 74.8044 3.47043 67.9342 C 0.0 **** 0.0
17597 C 74.7733 3.52554 66.4094 C 0.0 **** 0.0
17598 C 73.5851 4.27822 65.8755 C 0.0 **** 0.0
17599 C 73.0267 5.3023 66.6875 C 0.0 **** 0.0
17600 C 71.9998 6.10226 66.1238 C 0.0 **** 0.0
17601 C 71.5513 5.91895 64.8243 C 0.0 **** 0.0
17602 C 72.0386 4.84759 63.9916 C 0.0 **** 0.0
17603 C 73.1641 4.10625 64.5149 C 0.0 **** 0.0
17604 C 78.657 20.4221 71.0639 C 0.0 **** 0.0
17605 C 78.0762 20.756 69.718 C 0.0 **** 0.0
17606 C 78.2041 22.2251 73.265 C 0.0 **** 0.0
17607 C 77.0835 17.8592 70.965 C 0.0 **** 0.0
17608 C 76.2167 21.6747 75.3098 C 0.0 **** 0.0
17609 C 71.2218 19.9656 75.459 C 0.0 **** 0.0
17610 C 69.2018 18.743 73.5824 C 0.0 **** 0.0
17611 O 68.7174 16.045 73.2727 O 0.0 **** 0.0
17612 C 66.1107 14.6001 70.1553 C 0.0 **** 0.0
17613 C 66.8362 13.5062 67.4252 C 0.0 **** 0.0
17614 O 69.9254 10.6717 69.3994 O 0.0 **** 0.0
17615 O 73.9973 13.0763 72.4271 O 0.0 **** 0.0
17616 O 75.5934 11.2555 71.426 O 0.0 **** 0.0
17617 O 71.731 8.84192 68.8713 O 0.0 **** 0.0
17618 C 73.9504 3.16595 63.6171 C 0.0 **** 0.0
17619 C 71.6371 4.78441 62.5305 C 0.0 **** 0.0
17620 H 74.6563 17.2809 71.6359 H 0.0 **** 0.0
17621 H 75.3176 16.6639 73.2563 H 0.0 **** 0.0
17622 H 74.3241 19.2514 75.7453 H 0.0 **** 0.0
17623 H 73.6879 20.6536 74.8086 H 0.0 **** 0.0
17624 H 73.6524 15.2533 71.9476 H 0.0 **** 0.0
17625 H 69.1345 12.3967 68.1471 H 0.0 **** 0.0
17626 H 68.0141 12.3847 69.5729 H 0.0 **** 0.0
17627 H 68.5737 14.7276 67.65 H 0.0 **** 0.0
17628 H 66.987 16.0363 68.7781 H 0.0 **** 0.0
17629 H 68.0769 16.3789 70.9024 H 0.0 **** 0.0
17630 H 69.1647 16.2209 69.597 H 0.0 **** 0.0
17631 H 76.6787 8.59913 70.9497 H 0.0 **** 0.0
17632 H 75.8647 8.71691 72.6227 H 0.0 **** 0.0
17633 H 74.7668 6.72293 72.3721 H 0.0 **** 0.0
17634 H 76.4364 6.44849 71.8491 H 0.0 **** 0.0
17635 H 77.3106 4.82363 70.1586 H 0.0 **** 0.0
17636 H 76.1691 4.31867 71.4028 H 0.0 **** 0.0
17637 H 75.4539 2.37617 70.2236 H 0.0 **** 0.0
17638 H 77.263 2.40532 70.0736 H 0.0 **** 0.0
17639 H 76.2318 1.82833 67.9369 H 0.0 **** 0.0
17640 H 76.9873 3.47282 67.8745 H 0.0 **** 0.0
17641 H 74.01 2.79496 68.2323 H 0.0 **** 0.0
17642 H 75.7108 3.9163 65.9759 H 0.0 **** 0.0
17643 H 74.7466 2.46664 66.1033 H 0.0 **** 0.0
17644 H 71.645 6.98517 66.6197 H 0.0 **** 0.0
17645 H 70.7739 6.58153 64.4328 H 0.0 **** 0.0
17646 H 79.3286 19.5417 71.0108 H 0.0 **** 0.0
17647 H 79.3259 21.2262 71.3806 H 0.0 **** 0.0
17648 H 77.6818 21.8216 69.8183 H 0.0 **** 0.0
17649 H 77.2424 20.0912 69.3832 H 0.0 **** 0.0
17650 H 78.8606 20.7115 68.9769 H 0.0 **** 0.0
17651 H 77.9336 22.9305 74.0793 H 0.0 **** 0.0
17652 H 78.1486 22.9008 72.3533 H 0.0 **** 0.0
17653 H 79.2313 21.8795 73.4756 H 0.0 **** 0.0
17654 H 76.2558 17.8019 70.2214 H 0.0 **** 0.0
17655 H 77.2699 16.8609 71.4155 H 0.0 **** 0.0
17656 H 77.9835 18.0839 70.3683 H 0.0 **** 0.0
17657 H 75.4071 21.462 76.0087 H 0.0 **** 0.0
17658 H 76.1249 22.7637 75.0877 H 0.0 **** 0.0
17659 H 77.1497 21.493 75.8398 H 0.0 **** 0.0
17660 H 70.2706 19.667 75.9081 H 0.0 **** 0.0
17661 H 71.1293 21.039 75.1808 H 0.0 **** 0.0
17662 H 71.9724 19.9387 76.3163 H 0.0 **** 0.0
17663 H 68.9256 18.5939 72.5339 H 0.0 **** 0.0
17664 H 69.1299 19.8239 73.8258 H 0.0 **** 0.0
17665 H 68.4699 18.1921 74.2275 H 0.0 **** 0.0
17666 H 68.1073 15.2336 73.0071 H 0.0 **** 0.0
17667 H 65.1663 14.6035 69.5845 H 0.0 **** 0.0
17668 H 65.9789 15.2461 71.0545 H 0.0 **** 0.0
17669 H 66.2715 13.549 70.5184 H 0.0 **** 0.0
17670 H 67.2791 12.7574 66.7838 H 0.0 **** 0.0
17671 H 66.325 14.2231 66.7829 H 0.0 **** 0.0
17672 H 66.0168 12.9961 67.9905 H 0.0 **** 0.0
17673 H 69.7705 9.70394 69.6883 H 0.0 **** 0.0
17674 H 74.3173 12.3905 73.0797 H 0.0 **** 0.0
17675 H 73.5754 3.17538 62.5464 H 0.0 **** 0.0
17676 H 73.9642 2.16832 64.0291 H 0.0 **** 0.0
17677 H 75.0278 3.55806 63.6544 H 0.0 **** 0.0
17678 H 72.4502 5.37872 61.9949 H 0.0 **** 0.0
17679 H 70.6981 5.31718 62.4133 H 0.0 **** 0.0
17680 H 71.4821 3.75617 62.1898 H 0.0 **** 0.0
17681 C 51.5286 101.501 24.4017 C 0.0 **** 0.0
17682 C 51.6017 100.907 25.6721 C 0.0 **** 0.0
17683 C 50.4008 100.622 26.3686 C 0.0 **** 0.0
17684 C 49.2457 101.272 25.9907 C 0.0 **** 0.0
17685 C 49.1599 101.925 24.7116 C 0.0 **** 0.0
17686 C 50.2497 101.877 23.8369 C 0.0 **** 0.0
17687 C 48.0524 101.232 26.9424 C 0.0 **** 0.0
17688 C 47.998 100.017 27.8668 C 0.0 **** 0.0
17689 C 49.071 99.1329 27.8739 C 0.0 **** 0.0
17690 C 50.4261 99.7371 27.5815 C 0.0 **** 0.0
17691 C 48.8788 97.7691 28.2105 C 0.0 **** 0.0
17692 C 47.6244 97.3518 28.7829 C 0.0 **** 0.0
17693 C 46.5554 98.3019 28.9375 C 0.0 **** 0.0
17694 C 46.8006 99.6475 28.5132 C 0.0 **** 0.0
17695 C 45.8186 100.631 28.6918 C 0.0 **** 0.0
17696 C 44.5919 100.331 29.2543 C 0.0 **** 0.0
17697 C 44.3417 99.0058 29.721 C 0.0 **** 0.0
17698 C 45.2262 97.9775 29.4313 C 0.0 **** 0.0
17699 C 43.3018 98.8177 30.8225 C 0.0 **** 0.0
17700 C 42.921 100.166 31.5342 C 0.0 **** 0.0
17701 C 42.7171 101.289 30.4854 C 0.0 **** 0.0
17702 C 43.5496 101.325 29.3704 C 0.0 **** 0.0
17703 C 41.7966 100.008 32.5826 C 0.0 **** 0.0
17704 C 42.1266 98.8192 33.5398 C 0.0 **** 0.0
17705 C 42.4165 97.5995 32.8138 C 0.0 **** 0.0
17706 C 43.6689 97.7982 31.9218 C 0.0 **** 0.0
17707 C 43.4313 102.34 28.366 C 0.0 **** 0.0
17708 C 42.4386 103.319 28.5651 C 0.0 **** 0.0
17709 C 41.4808 103.163 29.5604 C 0.0 **** 0.0
17710 C 41.6166 102.188 30.5114 C 0.0 **** 0.0
17711 C 40.1608 103.874 29.3753 C 0.0 **** 0.0
17712 C 40.0998 105.14 28.6156 C 0.0 **** 0.0
17713 C 41.2704 105.575 28.0142 C 0.0 **** 0.0
17714 C 42.442 104.64 27.8491 C 0.0 **** 0.0
17715 C 41.2763 106.878 27.2062 C 0.0 **** 0.0
17716 C 40.0659 107.832 27.3859 C 0.0 **** 0.0
17717 C 38.7907 107.085 27.693 C 0.0 **** 0.0
17718 C 38.8524 105.842 28.4145 C 0.0 **** 0.0
17719 N 37.7036 105.307 28.9514 N 0.0 **** 0.0
17720 C 36.4802 105.833 28.7539 C 0.0 **** 0.0
17721 C 36.3235 107.023 28.0269 C 0.0 **** 0.0
17722 C 37.4719 107.644 27.4387 C 0.0 **** 0.0
17723 C 37.3806 108.809 26.4656 C 0.0 **** 0.0
17724 C 35.9488 109.066 25.9897 C 0.0 **** 0.0
17725 C 34.97 108.93 27.1402 C 0.0 **** 0.0
17726 C 34.9305 107.473 27.6143 C 0.0 **** 0.0
17727 C 33.9334 107.232 28.7313 C 0.0 **** 0.0
17728 C 34.0859 105.86 29.415 C 0.0 **** 0.0
17729 C 35.3238 105.191 29.3056 C 0.0 **** 0.0
17730 C 35.4656 103.884 29.7978 C 0.0 **** 0.0
17731 C 34.4464 103.289 30.4769 C 0.0 **** 0.0
17732 C 33.3453 104.025 30.8421 C 0.0 **** 0.0
17733 C 33.0852 105.309 30.2539 C 0.0 **** 0.0
17734 C 49.9988 102.186 22.3263 C 0.0 **** 0.0
17735 C 50.2035 103.654 21.8788 C 0.0 **** 0.0
17736 C 52.7209 101.427 23.4519 C 0.0 **** 0.0
17737 C 47.8678 102.631 24.331 C 0.0 **** 0.0
17738 C 52.9762 100.392 26.219 C 0.0 **** 0.0
17739 C 50.0484 96.8516 28.0655 C 0.0 **** 0.0
17740 C 47.5803 96.1028 29.6409 C 0.0 **** 0.0
17741 O 44.7653 96.6506 29.2446 O 0.0 **** 0.0
17742 C 41.2541 97.0689 32.021 C 0.0 **** 0.0
17743 C 41.0066 98.7409 34.6189 C 0.0 **** 0.0
17744 O 40.9159 102.369 31.7257 O 0.0 **** 0.0
17745 O 43.9692 102.085 27.0761 O 0.0 **** 0.0
17746 O 43.4903 105.011 27.3072 O 0.0 **** 0.0
17747 O 39.127 103.451 29.8913 O 0.0 **** 0.0
17748 C 31.769 106.036 30.6046 C 0.0 **** 0.0
17749 C 32.3473 103.369 31.8307 C 0.0 **** 0.0
17750 H 48.0332 102.147 27.5449 H 0.0 **** 0.0
17751 H 47.1345 101.216 26.3588 H 0.0 **** 0.0
17752 H 51.1996 98.9435 27.3841 H 0.0 **** 0.0
17753 H 50.7951 100.358 28.4842 H 0.0 **** 0.0
17754 H 46.0334 101.743 28.4661 H 0.0 **** 0.0
17755 H 41.719 100.907 33.2152 H 0.0 **** 0.0
17756 H 40.8537 99.923 32.0513 H 0.0 **** 0.0
17757 H 43.0836 99.1185 34.1062 H 0.0 **** 0.0
17758 H 42.6638 96.849 33.6389 H 0.0 **** 0.0
17759 H 44.0208 96.8273 31.5752 H 0.0 **** 0.0
17760 H 44.521 98.198 32.5191 H 0.0 **** 0.0
17761 H 42.1844 107.412 27.4981 H 0.0 **** 0.0
17762 H 41.277 106.627 26.1215 H 0.0 **** 0.0
17763 H 39.9956 108.576 26.5176 H 0.0 **** 0.0
17764 H 40.23 108.513 28.2425 H 0.0 **** 0.0
17765 H 37.8267 109.704 26.8911 H 0.0 **** 0.0
17766 H 37.99 108.583 25.5668 H 0.0 **** 0.0
17767 H 35.6875 108.311 25.2197 H 0.0 **** 0.0
17768 H 35.8938 110.024 25.4655 H 0.0 **** 0.0
17769 H 33.981 109.192 26.7213 H 0.0 **** 0.0
17770 H 35.1867 109.696 27.9226 H 0.0 **** 0.0
17771 H 34.5991 106.826 26.7459 H 0.0 **** 0.0
17772 H 34.0274 108.007 29.481 H 0.0 **** 0.0
17773 H 32.9284 107.254 28.3394 H 0.0 **** 0.0
17774 H 36.3859 103.329 29.6083 H 0.0 **** 0.0
17775 H 34.6114 102.273 30.8233 H 0.0 **** 0.0
17776 H 49.0151 101.81 21.9538 H 0.0 **** 0.0
17777 H 50.7031 101.611 21.8023 H 0.0 **** 0.0
17778 H 51.1646 104.068 22.2133 H 0.0 **** 0.0
17779 H 49.3657 104.311 22.2607 H 0.0 **** 0.0
17780 H 50.2588 103.71 20.795 H 0.0 **** 0.0
17781 H 52.7829 100.38 23.0457 H 0.0 **** 0.0
17782 H 53.7056 101.613 23.914 H 0.0 **** 0.0
17783 H 52.6344 102.14 22.606 H 0.0 **** 0.0
17784 H 47.0574 101.879 24.2872 H 0.0 **** 0.0
17785 H 47.8866 103.15 23.3428 H 0.0 **** 0.0
17786 H 47.5374 103.324 25.1056 H 0.0 **** 0.0
17787 H 53.2383 99.3776 25.8122 H 0.0 **** 0.0
17788 H 53.0038 100.307 27.3489 H 0.0 **** 0.0
17789 H 53.7453 101.178 26.0432 H 0.0 **** 0.0
17790 H 49.8424 95.8151 28.2347 H 0.0 **** 0.0
17791 H 50.8562 97.1752 28.786 H 0.0 **** 0.0
17792 H 50.4074 96.9157 26.9825 H 0.0 **** 0.0
17793 H 46.9091 96.3182 30.4979 H 0.0 **** 0.0
17794 H 48.5953 95.8183 30.0222 H 0.0 **** 0.0
17795 H 47.1167 95.2667 29.0833 H 0.0 **** 0.0
17796 H 43.7507 96.5222 29.2472 H 0.0 **** 0.0
17797 H 40.4996 96.5933 32.6793 H 0.0 **** 0.0
17798 H 41.5908 96.3428 31.2646 H 0.0 **** 0.0
17799 H 40.6219 97.7675 31.4147 H 0.0 **** 0.0
17800 H 40.9734 99.6657 35.2138 H 0.0 **** 0.0
17801 H 41.2411 97.8552 35.279 H 0.0 **** 0.0
17802 H 40.0097 98.6442 34.1281 H 0.0 **** 0.0
17803 H 40.5817 103.319 31.856 H 0.0 **** 0.0
17804 H 43.8135 102.864 26.4225 H 0.0 **** 0.0
17805 H 30.9277 105.505 30.0964 H 0.0 **** 0.0
17806 H 31.8234 107.084 30.2579 H 0.0 **** 0.0
17807 H 31.5572 106.114 31.6956 H 0.0 **** 0.0
17808 H 32.828 103.356 32.8663 H 0.0 **** 0.0
17809 H 32.137 102.3 31.5865 H 0.0 **** 0.0
17810 H 31.3872 103.911 31.8581 H 0.0 **** 0.0
17811 C 11.8859 29.3046 21.317 C 0.0 **** 0.0
17812 C 12.3246 30.0633 22.4233 C 0.0 **** 0.0
17813 C 12.074 31.4367 22.4899 C 0.0 **** 0.0
17814 C 11.2044 32.0132 21.5718 C 0.0 **** 0.0
17815 C 10.7245 31.309 20.4463 C 0.0 **** 0.0
17816 C 10.9982 29.9392 20.3565 C 0.0 **** 0.0
17817 C 10.7893 33.4794 21.8451 C 0.0 **** 0.0
17818 C 11.9651 34.4111 22.1794 C 0.0 **** 0.0
17819 C 12.926 33.8458 23.0461 C 0.0 **** 0.0
17820 C 12.7694 32.3535 23.5014 C 0.0 **** 0.0
17821 C 14.0342 34.61 23.5026 C 0.0 **** 0.0
17822 C 14.3355 35.8466 22.8733 C 0.0 **** 0.0
17823 C 13.3805 36.4484 21.9905 C 0.0 **** 0.0
17824 C 12.1604 35.7299 21.656 C 0.0 **** 0.0
17825 C 11.1774 36.3872 20.8597 C 0.0 **** 0.0
17826 C 11.272 37.7267 20.4851 C 0.0 **** 0.0
17827 C 12.4855 38.3845 20.7484 C 0.0 **** 0.0
17828 C 13.5053 37.7785 21.5522 C 0.0 **** 0.0
17829 C 12.635 39.8059 20.2106 C 0.0 **** 0.0
17830 C 11.3749 40.6672 20.3234 C 0.0 **** 0.0
17831 C 10.1118 39.8725 20.241 C 0.0 **** 0.0
17832 C 10.1919 38.4921 19.955 C 0.0 **** 0.0
17833 C 11.3391 41.9411 19.346 C 0.0 **** 0.0
17834 C 11.7511 41.5812 17.9287 C 0.0 **** 0.0
17835 C 13.1578 41.1185 17.9555 C 0.0 **** 0.0
17836 C 13.2274 39.759 18.7766 C 0.0 **** 0.0
17837 C 8.99658 37.9101 19.3948 C 0.0 **** 0.0
17838 C 7.75091 38.5273 19.5626 C 0.0 **** 0.0
17839 C 7.70879 39.7704 20.259 C 0.0 **** 0.0
17840 C 8.85347 40.5092 20.424 C 0.0 **** 0.0
17841 C 6.37082 40.3827 20.6198 C 0.0 **** 0.0
17842 C 5.12261 39.9071 19.9816 C 0.0 **** 0.0
17843 C 5.23231 38.7243 19.1679 C 0.0 **** 0.0
17844 C 6.4943 38.0611 18.8703 C 0.0 **** 0.0
17845 C 3.9579 38.2037 18.5074 C 0.0 **** 0.0
17846 C 2.89424 39.3044 18.2534 C 0.0 **** 0.0
17847 C 2.7614 40.279 19.36 C 0.0 **** 0.0
17848 C 3.89022 40.526 20.1838 C 0.0 **** 0.0
17849 N 3.73827 41.5426 21.1178 N 0.0 **** 0.0
17850 C 2.66643 42.3659 21.2592 C 0.0 **** 0.0
17851 C 1.53777 42.1301 20.4078 C 0.0 **** 0.0
17852 C 1.53067 41.037 19.5421 C 0.0 **** 0.0
17853 C 0.201228 40.5864 18.8794 C 0.0 **** 0.0
17854 C -1.03441 41.3693 19.1912 C 0.0 **** 0.0
17855 C -0.678436 42.8135 19.481 C 0.0 **** 0.0
17856 C 0.242071 42.869 20.7516 C 0.0 **** 0.0
17857 C 0.537643 44.284 21.1709 C 0.0 **** 0.0
17858 C 1.64723 44.3809 22.2016 C 0.0 **** 0.0
17859 C 2.73092 43.4368 22.1941 C 0.0 **** 0.0
17860 C 3.75627 43.5442 23.192 C 0.0 **** 0.0
17861 C 3.79672 44.6099 24.0567 C 0.0 **** 0.0
17862 C 2.78618 45.6302 23.9944 C 0.0 **** 0.0
17863 C 1.70765 45.547 23.0905 C 0.0 **** 0.0
17864 C 10.457 29.1429 19.1976 C 0.0 **** 0.0
17865 C 11.3835 29.2262 17.9941 C 0.0 **** 0.0
17866 C 12.1835 27.8074 21.2748 C 0.0 **** 0.0
17867 C 9.86993 32.0133 19.3976 C 0.0 **** 0.0
17868 C 13.0181 29.3794 23.613 C 0.0 **** 0.0
17869 C 14.8612 34.1382 24.6783 C 0.0 **** 0.0
17870 C 15.7199 36.4552 23.1272 C 0.0 **** 0.0
17871 O 14.405 38.5822 22.2086 O 0.0 **** 0.0
17872 C 14.2046 42.1182 18.4133 C 0.0 **** 0.0
17873 C 11.5264 42.7748 16.9743 C 0.0 **** 0.0
17874 O 8.7798 41.8682 20.7656 O 0.0 **** 0.0
17875 O 9.09681 36.8004 18.6269 O 0.0 **** 0.0
17876 O 6.55814 37.1127 18.103 O 0.0 **** 0.0
17877 O 6.30395 41.2715 21.4634 O 0.0 **** 0.0
17878 C 0.841142 46.7456 22.8785 C 0.0 **** 0.0
17879 C 2.9568 46.7469 25.0109 C 0.0 **** 0.0
17880 H 10.0962 33.8575 21.0998 H 0.0 **** 0.0
17881 H 10.1759 33.3893 22.7421 H 0.0 **** 0.0
17882 H 12.1237 32.3887 24.3955 H 0.0 **** 0.0
17883 H 13.7664 31.9797 23.7942 H 0.0 **** 0.0
17884 H 10.2521 35.8899 20.7372 H 0.0 **** 0.0
17885 H 10.349 42.4304 19.2444 H 0.0 **** 0.0
17886 H 12.0211 42.7007 19.7521 H 0.0 **** 0.0
17887 H 11.0548 40.7451 17.6044 H 0.0 **** 0.0
17888 H 13.4189 40.8838 16.9021 H 0.0 **** 0.0
17889 H 14.2785 39.4108 18.7856 H 0.0 **** 0.0
17890 H 12.6885 38.999 18.1944 H 0.0 **** 0.0
17891 H 4.21564 37.7658 17.4923 H 0.0 **** 0.0
17892 H 3.5186 37.4352 19.1898 H 0.0 **** 0.0
17893 H 1.89409 38.8992 18.0906 H 0.0 **** 0.0
17894 H 3.23078 39.8034 17.3459 H 0.0 **** 0.0
17895 H 0.345101 40.6825 17.782 H 0.0 **** 0.0
17896 H 0.0475158 39.5476 19.1763 H 0.0 **** 0.0
17897 H -1.56488 40.9872 20.1533 H 0.0 **** 0.0
17898 H -1.69078 41.3458 18.2906 H 0.0 **** 0.0
17899 H -1.60823 43.4334 19.6138 H 0.0 **** 0.0
17900 H -0.138362 43.2901 18.6295 H 0.0 **** 0.0
17901 H -0.216895 42.3036 21.6145 H 0.0 **** 0.0
17902 H 0.834251 44.8677 20.2891 H 0.0 **** 0.0
17903 H -0.441486 44.7467 21.5703 H 0.0 **** 0.0
17904 H 4.49346 42.7096 23.3069 H 0.0 **** 0.0
17905 H 4.6907 44.7389 24.6343 H 0.0 **** 0.0
17906 H 9.42663 29.397 18.9137 H 0.0 **** 0.0
17907 H 10.298 28.0573 19.5266 H 0.0 **** 0.0
17908 H 12.3812 28.7449 18.2246 H 0.0 **** 0.0
17909 H 11.4998 30.3002 17.714 H 0.0 **** 0.0
17910 H 10.9731 28.6196 17.1493 H 0.0 **** 0.0
17911 H 13.1084 27.6468 21.8799 H 0.0 **** 0.0
17912 H 12.3956 27.471 20.2318 H 0.0 **** 0.0
17913 H 11.3655 27.2078 21.7394 H 0.0 **** 0.0
17914 H 9.67637 31.5185 18.4194 H 0.0 **** 0.0
17915 H 10.254 32.9401 18.9976 H 0.0 **** 0.0
17916 H 8.92374 32.2648 19.9205 H 0.0 **** 0.0
17917 H 13.9933 28.9798 23.2725 H 0.0 **** 0.0
17918 H 12.334 28.5818 23.9315 H 0.0 **** 0.0
17919 H 13.1645 30.0203 24.5186 H 0.0 **** 0.0
17920 H 14.3145 33.3909 25.2973 H 0.0 **** 0.0
17921 H 15.8258 33.7247 24.2864 H 0.0 **** 0.0
17922 H 15.1416 34.9665 25.3697 H 0.0 **** 0.0
17923 H 16.1071 36.9805 22.2337 H 0.0 **** 0.0
17924 H 16.4796 35.6731 23.3468 H 0.0 **** 0.0
17925 H 15.6213 37.1663 24.0008 H 0.0 **** 0.0
17926 H 14.5266 39.5159 21.8472 H 0.0 **** 0.0
17927 H 14.1184 43.1009 17.8937 H 0.0 **** 0.0
17928 H 15.212 41.7069 18.1415 H 0.0 **** 0.0
17929 H 14.0998 42.2446 19.5438 H 0.0 **** 0.0
17930 H 12.1094 43.6753 17.2741 H 0.0 **** 0.0
17931 H 10.462 43.1054 17.0301 H 0.0 **** 0.0
17932 H 11.7998 42.4494 15.9425 H 0.0 **** 0.0
17933 H 9.41394 42.0995 21.5336 H 0.0 **** 0.0
17934 H 10.0314 36.5842 18.2716 H 0.0 **** 0.0
17935 H 0.426594 46.7608 21.8567 H 0.0 **** 0.0
17936 H 1.40217 47.6813 22.9943 H 0.0 **** 0.0
17937 H -0.0168747 46.6973 23.5608 H 0.0 **** 0.0
17938 H 3.30526 47.6857 24.5108 H 0.0 **** 0.0
17939 H 3.58522 46.4095 25.8346 H 0.0 **** 0.0
17940 H 1.92045 46.953 25.4465 H 0.0 **** 0.0
17941 C 13.0347 35.1007 9.75217 C 0.0 **** 0.0
17942 C 13.1639 33.8602 9.05758 C 0.0 **** 0.0
17943 C 13.4277 33.8563 7.67809 C 0.0 **** 0.0
17944 C 13.6579 35.0531 6.99558 C 0.0 **** 0.0
17945 C 13.4526 36.2837 7.68076 C 0.0 **** 0.0
17946 C 13.2291 36.3269 9.05943 C 0.0 **** 0.0
17947 C 14.046 35.0195 5.55336 C 0.0 **** 0.0
17948 C 14.4009 33.6628 4.92109 C 0.0 **** 0.0
17949 C 14.0748 32.463 5.57775 C 0.0 **** 0.0
17950 C 13.6674 32.5228 6.99814 C 0.0 **** 0.0
17951 C 14.3354 31.2349 4.92297 C 0.0 **** 0.0
17952 C 15.2569 31.231 3.81804 C 0.0 **** 0.0
17953 C 15.7933 32.4382 3.35876 C 0.0 **** 0.0
17954 C 15.1861 33.6123 3.73571 C 0.0 **** 0.0
17955 C 15.4935 34.7942 3.02673 C 0.0 **** 0.0
17956 C 16.5588 34.8637 2.12577 C 0.0 **** 0.0
17957 C 17.2098 33.6544 1.74689 C 0.0 **** 0.0
17958 C 16.9312 32.4544 2.51091 C 0.0 **** 0.0
17959 C 18.2076 33.6719 0.607066 C 0.0 **** 0.0
17960 C 18.0973 34.9401 -0.282124 C 0.0 **** 0.0
17961 C 17.7413 36.197 0.459532 C 0.0 **** 0.0
17962 C 17.035 36.0731 1.66949 C 0.0 **** 0.0
17963 C 17.2243 34.6783 -1.48926 C 0.0 **** 0.0
17964 C 17.8866 33.6118 -2.41279 C 0.0 **** 0.0
17965 C 18.6817 32.5376 -1.69555 C 0.0 **** 0.0
17966 C 18.1464 32.3771 -0.278438 C 0.0 **** 0.0
17967 C 16.8477 37.2115 2.51172 C 0.0 **** 0.0
17968 C 17.2649 38.4762 2.10022 C 0.0 **** 0.0
17969 C 17.941 38.6279 0.888188 C 0.0 **** 0.0
17970 C 18.2123 37.4773 0.0659853 C 0.0 **** 0.0
17971 C 18.2638 40.0245 0.424362 C 0.0 **** 0.0
17972 C 18.0273 41.2337 1.31086 C 0.0 **** 0.0
17973 C 17.4453 41.0362 2.54869 C 0.0 **** 0.0
17974 C 17.1563 39.6753 2.99246 C 0.0 **** 0.0
17975 C 17.2331 42.1771 3.50961 C 0.0 **** 0.0
17976 C 16.9009 43.5013 2.76274 C 0.0 **** 0.0
17977 C 17.8344 43.6882 1.58615 C 0.0 **** 0.0
17978 C 18.2611 42.5739 0.870698 C 0.0 **** 0.0
17979 N 19.0506 42.7789 -0.225684 N 0.0 **** 0.0
17980 C 19.5189 43.9605 -0.643358 C 0.0 **** 0.0
17981 C 19.2386 45.068 0.130661 C 0.0 **** 0.0
17982 C 18.3915 44.9705 1.27537 C 0.0 **** 0.0
17983 C 18.0567 46.1874 2.08685 C 0.0 **** 0.0
17984 C 18.9376 47.4158 1.76561 C 0.0 **** 0.0
17985 C 19.2745 47.561 0.267782 C 0.0 **** 0.0
17986 C 19.9859 46.3344 -0.174243 C 0.0 **** 0.0
17987 C 20.2934 46.4706 -1.68545 C 0.0 **** 0.0
17988 C 20.9118 45.2043 -2.2148 C 0.0 **** 0.0
17989 C 20.426 43.9872 -1.73525 C 0.0 **** 0.0
17990 C 20.7827 42.7791 -2.40221 C 0.0 **** 0.0
17991 C 21.6258 42.7965 -3.49759 C 0.0 **** 0.0
17992 C 22.1846 43.9903 -3.97286 C 0.0 **** 0.0
17993 C 21.8254 45.1856 -3.3028 C 0.0 **** 0.0
17994 C 13.3833 37.6286 9.83776 C 0.0 **** 0.0
17995 C 12.0492 38.2893 10.1586 C 0.0 **** 0.0
17996 C 12.6291 35.0629 11.2325 C 0.0 **** 0.0
17997 C 13.4237 37.558 6.86292 C 0.0 **** 0.0
17998 C 13.0396 32.5153 9.84194 C 0.0 **** 0.0
17999 C 13.6284 29.947 5.34202 C 0.0 **** 0.0
18000 C 15.4035 29.9958 2.95201 C 0.0 **** 0.0
18001 O 17.783 31.364 2.50108 O 0.0 **** 0.0
18002 C 20.2502 32.6828 -1.60354 C 0.0 **** 0.0
18003 C 18.7137 34.2821 -3.51337 C 0.0 **** 0.0
18004 O 19.067 37.6268 -1.0622 O 0.0 **** 0.0
18005 O 16.5972 37.0694 3.8786 O 0.0 **** 0.0
18006 O 16.8486 39.524 4.18475 O 0.0 **** 0.0
18007 O 18.6882 40.2106 -0.712245 O 0.0 **** 0.0
18008 C 22.3989 46.5385 -3.72185 C 0.0 **** 0.0
18009 C 23.1527 43.9547 -5.12846 C 0.0 **** 0.0
18010 H 13.2184 35.4587 4.95936 H 0.0 **** 0.0
18011 H 14.9538 35.6501 5.51663 H 0.0 **** 0.0
18012 H 14.3658 31.8825 7.6216 H 0.0 **** 0.0
18013 H 12.725 31.9851 7.0555 H 0.0 **** 0.0
18014 H 14.7554 35.6358 3.1533 H 0.0 **** 0.0
18015 H 16.2411 34.3066 -1.18652 H 0.0 **** 0.0
18016 H 17.0417 35.6181 -2.10621 H 0.0 **** 0.0
18017 H 17.1293 33.1207 -2.94981 H 0.0 **** 0.0
18018 H 18.5641 31.5863 -2.23896 H 0.0 **** 0.0
18019 H 18.6929 31.5713 0.207706 H 0.0 **** 0.0
18020 H 17.0878 31.992 -0.317515 H 0.0 **** 0.0
18021 H 16.4069 41.91 4.21057 H 0.0 **** 0.0
18022 H 18.1507 42.2669 4.16736 H 0.0 **** 0.0
18023 H 16.8733 44.2737 3.53729 H 0.0 **** 0.0
18024 H 15.8583 43.3847 2.32453 H 0.0 **** 0.0
18025 H 16.9919 46.4699 1.85109 H 0.0 **** 0.0
18026 H 18.1654 45.9721 3.14906 H 0.0 **** 0.0
18027 H 19.8737 47.3284 2.34599 H 0.0 **** 0.0
18028 H 18.3881 48.3282 2.06212 H 0.0 **** 0.0
18029 H 19.8848 48.4311 0.0637294 H 0.0 **** 0.0
18030 H 18.3234 47.6895 -0.288981 H 0.0 **** 0.0
18031 H 20.9828 46.261 0.339348 H 0.0 **** 0.0
18032 H 19.3368 46.702 -2.19748 H 0.0 **** 0.0
18033 H 20.9931 47.2895 -1.82212 H 0.0 **** 0.0
18034 H 20.4925 41.8046 -2.00136 H 0.0 **** 0.0
18035 H 21.8825 41.8525 -3.93894 H 0.0 **** 0.0
18036 H 13.9539 38.3591 9.24029 H 0.0 **** 0.0
18037 H 13.9764 37.4707 10.7669 H 0.0 **** 0.0
18038 H 11.5822 37.6535 10.925 H 0.0 **** 0.0
18039 H 11.4077 38.2338 9.27551 H 0.0 **** 0.0
18040 H 12.1554 39.3208 10.4858 H 0.0 **** 0.0
18041 H 11.5957 34.7129 11.2641 H 0.0 **** 0.0
18042 H 12.7692 35.979 11.8454 H 0.0 **** 0.0
18043 H 13.2284 34.2962 11.7694 H 0.0 **** 0.0
18044 H 12.8664 37.4519 5.92275 H 0.0 **** 0.0
18045 H 14.4951 37.8771 6.66722 H 0.0 **** 0.0
18046 H 12.9044 38.3982 7.4065 H 0.0 **** 0.0
18047 H 12.9102 31.6702 9.19681 H 0.0 **** 0.0
18048 H 12.1389 32.501 10.4865 H 0.0 **** 0.0
18049 H 13.9719 32.4247 10.4765 H 0.0 **** 0.0
18050 H 14.3021 29.0873 5.14178 H 0.0 **** 0.0
18051 H 12.701 29.8247 4.7526 H 0.0 **** 0.0
18052 H 13.3666 29.8275 6.40829 H 0.0 **** 0.0
18053 H 15.9438 30.1484 1.98691 H 0.0 **** 0.0
18054 H 14.3916 29.7026 2.64231 H 0.0 **** 0.0
18055 H 15.9284 29.1847 3.48265 H 0.0 **** 0.0
18056 H 18.7451 31.6063 2.3366 H 0.0 **** 0.0
18057 H 20.6874 32.7167 -2.62892 H 0.0 **** 0.0
18058 H 20.6809 31.8021 -1.09018 H 0.0 **** 0.0
18059 H 20.5503 33.6233 -1.10533 H 0.0 **** 0.0
18060 H 18.0667 34.985 -4.08921 H 0.0 **** 0.0
18061 H 19.2074 33.5689 -4.17208 H 0.0 **** 0.0
18062 H 19.5711 34.8525 -3.10093 H 0.0 **** 0.0
18063 H 19.3715 36.7735 -1.48734 H 0.0 **** 0.0
18064 H 17.1889 36.3631 4.2885 H 0.0 **** 0.0
18065 H 21.6177 47.2851 -3.94039 H 0.0 **** 0.0
18066 H 23.0076 46.4822 -4.67118 H 0.0 **** 0.0
18067 H 23.0203 46.8825 -2.92889 H 0.0 **** 0.0
18068 H 22.6672 44.4223 -5.97469 H 0.0 **** 0.0
18069 H 23.4728 42.9165 -5.43184 H 0.0 **** 0.0
18070 H 24.0819 44.5508 -4.98559 H 0.0 **** 0.0
18071 C 75.7713 87.5185 41.641 C 0.0 **** 0.0
18072 C 76.0702 86.7539 40.4721 C 0.0 **** 0.0
18073 C 77.4079 86.805 39.925 C 0.0 **** 0.0
18074 C 78.4247 87.5284 40.5855 C 0.0 **** 0.0
18075 C 78.1065 88.3708 41.6776 C 0.0 **** 0.0
18076 C 76.7221 88.4955 42.0438 C 0.0 **** 0.0
18077 C 79.8528 87.3528 40.1499 C 0.0 **** 0.0
18078 C 80.1885 86.6629 38.816 C 0.0 **** 0.0
18079 C 79.1586 86.1984 38.017 C 0.0 **** 0.0
18080 C 77.7393 86.1078 38.5548 C 0.0 **** 0.0
18081 C 79.4684 85.7452 36.7052 C 0.0 **** 0.0
18082 C 80.8272 85.6623 36.2306 C 0.0 **** 0.0
18083 C 81.8987 85.8168 37.182 C 0.0 **** 0.0
18084 C 81.5604 86.3648 38.4309 C 0.0 **** 0.0
18085 C 82.583 86.6343 39.3655 C 0.0 **** 0.0
18086 C 83.901 86.2292 39.1389 C 0.0 **** 0.0
18087 C 84.2821 85.8918 37.7868 C 0.0 **** 0.0
18088 C 83.2802 85.6262 36.8495 C 0.0 **** 0.0
18089 C 85.7575 85.7663 37.3835 C 0.0 **** 0.0
18090 C 86.7221 86.1157 38.53 C 0.0 **** 0.0
18091 C 86.1967 85.6979 39.8728 C 0.0 **** 0.0
18092 C 84.8489 86.1058 40.1767 C 0.0 **** 0.0
18093 C 88.1906 85.8672 38.1988 C 0.0 **** 0.0
18094 C 88.5946 86.728 37.0373 C 0.0 **** 0.0
18095 C 87.6769 86.5121 35.8819 C 0.0 **** 0.0
18096 C 86.1633 86.7305 36.2291 C 0.0 **** 0.0
18097 C 84.4339 86.01 41.5102 C 0.0 **** 0.0
18098 C 85.019 85.0553 42.3157 C 0.0 **** 0.0
18099 C 86.2658 84.5145 42.0348 C 0.0 **** 0.0
18100 C 86.8595 84.774 40.749 C 0.0 **** 0.0
18101 C 87.0693 83.8957 43.1648 C 0.0 **** 0.0
18102 C 86.3984 83.4846 44.4011 C 0.0 **** 0.0
18103 C 85.0329 83.7431 44.4506 C 0.0 **** 0.0
18104 C 84.3096 84.5564 43.4732 C 0.0 **** 0.0
18105 C 84.3005 83.377 45.7013 C 0.0 **** 0.0
18106 C 84.8061 82.1136 46.3712 C 0.0 **** 0.0
18107 C 86.3296 82.219 46.5078 C 0.0 **** 0.0
18108 C 87.0755 82.7985 45.4754 C 0.0 **** 0.0
18109 N 88.4164 82.794 45.5624 N 0.0 **** 0.0
18110 C 89.1146 82.2979 46.6495 C 0.0 **** 0.0
18111 C 88.3681 81.5841 47.6036 C 0.0 **** 0.0
18112 C 86.9674 81.6079 47.5841 C 0.0 **** 0.0
18113 C 86.1695 80.8386 48.6497 C 0.0 **** 0.0
18114 C 86.9799 79.7033 49.3158 C 0.0 **** 0.0
18115 C 88.3603 80.1764 49.7322 C 0.0 **** 0.0
18116 C 89.1508 80.6681 48.531 C 0.0 **** 0.0
18117 C 90.4933 81.318 48.9264 C 0.0 **** 0.0
18118 C 91.2616 81.8149 47.7389 C 0.0 **** 0.0
18119 C 90.53 82.3045 46.6303 C 0.0 **** 0.0
18120 C 91.2531 82.7496 45.4731 C 0.0 **** 0.0
18121 C 92.602 82.6967 45.4657 C 0.0 **** 0.0
18122 C 93.3471 82.3135 46.591 C 0.0 **** 0.0
18123 C 92.6804 81.7614 47.7143 C 0.0 **** 0.0
18124 C 76.2477 89.7011 42.8449 C 0.0 **** 0.0
18125 C 76.0961 90.8483 41.8798 C 0.0 **** 0.0
18126 C 74.4288 87.288 42.3665 C 0.0 **** 0.0
18127 C 79.1903 89.0551 42.4823 C 0.0 **** 0.0
18128 C 75.0562 85.7999 39.8701 C 0.0 **** 0.0
18129 C 78.3219 85.4464 35.7692 C 0.0 **** 0.0
18130 C 81.1349 85.4369 34.7342 C 0.0 **** 0.0
18131 O 83.572 84.8557 35.707 O 0.0 **** 0.0
18132 C 87.9247 85.164 35.2135 C 0.0 **** 0.0
18133 C 90.0991 86.562 36.6298 C 0.0 **** 0.0
18134 O 88.0648 84.1135 40.3615 O 0.0 **** 0.0
18135 O 83.5341 86.9211 42.0688 O 0.0 **** 0.0
18136 O 83.0945 84.7066 43.5764 O 0.0 **** 0.0
18137 O 88.2943 83.8589 43.1295 O 0.0 **** 0.0
18138 C 93.4828 81.2887 48.9535 C 0.0 **** 0.0
18139 C 94.8904 82.2821 46.4727 C 0.0 **** 0.0
18140 H 80.2998 88.3854 40.0386 H 0.0 **** 0.0
18141 H 80.4045 86.8308 40.9721 H 0.0 **** 0.0
18142 H 77.5504 85.0476 38.6337 H 0.0 **** 0.0
18143 H 77.0859 86.529 37.7916 H 0.0 **** 0.0
18144 H 82.3957 87.3715 40.1303 H 0.0 **** 0.0
18145 H 88.8114 86.1387 39.1014 H 0.0 **** 0.0
18146 H 88.3112 84.8282 37.9323 H 0.0 **** 0.0
18147 H 88.4572 87.8073 37.3118 H 0.0 **** 0.0
18148 H 87.9215 87.2357 35.1177 H 0.0 **** 0.0
18149 H 85.4476 86.6142 35.3349 H 0.0 **** 0.0
18150 H 86.0034 87.7477 36.5789 H 0.0 **** 0.0
18151 H 84.3869 84.2323 46.4178 H 0.0 **** 0.0
18152 H 83.2058 83.2304 45.5133 H 0.0 **** 0.0
18153 H 84.6002 81.2223 45.6945 H 0.0 **** 0.0
18154 H 84.2263 82.0779 47.3473 H 0.0 **** 0.0
18155 H 85.8116 81.5609 49.4248 H 0.0 **** 0.0
18156 H 85.3145 80.3892 48.1541 H 0.0 **** 0.0
18157 H 87.1261 78.9317 48.5355 H 0.0 **** 0.0
18158 H 86.4276 79.2076 50.1533 H 0.0 **** 0.0
18159 H 88.953 79.4219 50.3661 H 0.0 **** 0.0
18160 H 88.2092 81.0358 50.456 H 0.0 **** 0.0
18161 H 89.3852 79.7275 47.9146 H 0.0 **** 0.0
18162 H 90.3183 82.189 49.6476 H 0.0 **** 0.0
18163 H 91.0006 80.5217 49.4985 H 0.0 **** 0.0
18164 H 90.7534 83.1509 44.572 H 0.0 **** 0.0
18165 H 93.1509 83.1544 44.623 H 0.0 **** 0.0
18166 H 76.9213 89.9098 43.6785 H 0.0 **** 0.0
18167 H 75.2241 89.6227 43.3051 H 0.0 **** 0.0
18168 H 77.1126 91.2145 41.7009 H 0.0 **** 0.0
18169 H 75.4956 91.6624 42.3582 H 0.0 **** 0.0
18170 H 75.618 90.4832 40.9244 H 0.0 **** 0.0
18171 H 74.1582 86.2291 42.3645 H 0.0 **** 0.0
18172 H 73.6413 87.8774 41.8386 H 0.0 **** 0.0
18173 H 74.5236 87.577 43.4564 H 0.0 **** 0.0
18174 H 79.0388 88.8533 43.5833 H 0.0 **** 0.0
18175 H 79.0962 90.1386 42.4252 H 0.0 **** 0.0
18176 H 80.2526 88.7308 42.2392 H 0.0 **** 0.0
18177 H 75.3149 85.3996 38.8771 H 0.0 **** 0.0
18178 H 74.0632 86.2343 39.6982 H 0.0 **** 0.0
18179 H 75.0366 84.9495 40.58 H 0.0 **** 0.0
18180 H 78.6552 84.9178 34.8383 H 0.0 **** 0.0
18181 H 77.8421 86.3988 35.4651 H 0.0 **** 0.0
18182 H 77.5685 84.7337 36.1739 H 0.0 **** 0.0
18183 H 82.002 86.0177 34.4173 H 0.0 **** 0.0
18184 H 80.3329 85.8379 34.0757 H 0.0 **** 0.0
18185 H 81.3463 84.3896 34.4983 H 0.0 **** 0.0
18186 H 84.4762 84.4544 35.6394 H 0.0 **** 0.0
18187 H 88.9215 85.1795 34.6854 H 0.0 **** 0.0
18188 H 87.1 84.8681 34.5098 H 0.0 **** 0.0
18189 H 87.8504 84.2834 35.9221 H 0.0 **** 0.0
18190 H 90.8163 86.8908 37.4076 H 0.0 **** 0.0
18191 H 90.3323 87.1837 35.7028 H 0.0 **** 0.0
18192 H 90.3457 85.4872 36.477 H 0.0 **** 0.0
18193 H 88.2685 83.2424 40.8346 H 0.0 **** 0.0
18194 H 83.7346 87.1488 43.0531 H 0.0 **** 0.0
18195 H 93.0924 81.742 49.899 H 0.0 **** 0.0
18196 H 94.5302 81.4751 48.9274 H 0.0 **** 0.0
18197 H 93.3282 80.2103 49.0727 H 0.0 **** 0.0
18198 H 95.3367 82.9631 47.1828 H 0.0 **** 0.0
18199 H 95.2142 82.5515 45.4646 H 0.0 **** 0.0
18200 H 95.2731 81.2754 46.6682 H 0.0 **** 0.0
18201 C 24.2321 46.2071 38.7088 C 0.0 **** 0.0
18202 C 24.4313 47.1272 37.6488 C 0.0 **** 0.0
18203 C 24.9102 48.4344 37.9215 C 0.0 **** 0.0
18204 C 25.401 48.7128 39.2212 C 0.0 **** 0.0
18205 C 25.3602 47.7125 40.2338 C 0.0 **** 0.0
18206 C 24.725 46.4821 39.9945 C 0.0 **** 0.0
18207 C 25.9693 50.1088 39.5314 C 0.0 **** 0.0
18208 C 25.6703 51.2367 38.5109 C 0.0 **** 0.0
18209 C 25.0983 50.9345 37.2883 C 0.0 **** 0.0
18210 C 24.8958 49.4872 36.8413 C 0.0 **** 0.0
18211 C 24.794 51.9922 36.3644 C 0.0 **** 0.0
18212 C 24.8439 53.3117 36.8415 C 0.0 **** 0.0
18213 C 25.564 53.6221 38.0073 C 0.0 **** 0.0
18214 C 25.9987 52.5668 38.8076 C 0.0 **** 0.0
18215 C 26.8516 52.8642 39.8992 C 0.0 **** 0.0
18216 C 27.0479 54.1771 40.3808 C 0.0 **** 0.0
18217 C 26.7091 55.2484 39.5314 C 0.0 **** 0.0
18218 C 26.0274 54.936 38.2789 C 0.0 **** 0.0
18219 C 27.2536 56.6635 39.8139 C 0.0 **** 0.0
18220 C 27.7031 56.84 41.2897 C 0.0 **** 0.0
18221 C 28.1675 55.6134 42.0198 C 0.0 **** 0.0
18222 C 27.6506 54.3613 41.6663 C 0.0 **** 0.0
18223 C 26.6645 57.62 42.1172 C 0.0 **** 0.0
18224 C 25.1867 57.4286 41.6751 C 0.0 **** 0.0
18225 C 24.9681 57.7323 40.2588 C 0.0 **** 0.0
18226 C 26.2564 57.8003 39.4348 C 0.0 **** 0.0
18227 C 27.7028 53.286 42.6133 C 0.0 **** 0.0
18228 C 28.6791 53.342 43.609 C 0.0 **** 0.0
18229 C 29.2587 54.5831 43.9271 C 0.0 **** 0.0
18230 C 28.9882 55.7063 43.1253 C 0.0 **** 0.0
18231 C 30.2079 54.6403 45.065 C 0.0 **** 0.0
18232 C 30.2872 53.494 46.0511 C 0.0 **** 0.0
18233 C 29.7415 52.2583 45.6931 C 0.0 **** 0.0
18234 C 29.116 52.1292 44.3355 C 0.0 **** 0.0
18235 C 29.8325 51.0089 46.5361 C 0.0 **** 0.0
18236 C 30.4856 51.1582 47.8604 C 0.0 **** 0.0
18237 C 31.1289 52.4983 48.1715 C 0.0 **** 0.0
18238 C 30.9104 53.6083 47.2942 C 0.0 **** 0.0
18239 N 31.3364 54.841 47.6745 N 0.0 **** 0.0
18240 C 31.9105 55.0681 48.8819 C 0.0 **** 0.0
18241 C 32.2477 53.9965 49.7392 C 0.0 **** 0.0
18242 C 31.8847 52.6751 49.3384 C 0.0 **** 0.0
18243 C 32.2999 51.4743 50.2073 C 0.0 **** 0.0
18244 C 33.3163 51.7792 51.2822 C 0.0 **** 0.0
18245 C 32.9403 53.0804 52.017 C 0.0 **** 0.0
18246 C 33.0662 54.2126 51.0216 C 0.0 **** 0.0
18247 C 32.6894 55.5496 51.6692 C 0.0 **** 0.0
18248 C 32.6399 56.6778 50.6249 C 0.0 **** 0.0
18249 C 32.1138 56.4098 49.3286 C 0.0 **** 0.0
18250 C 31.9601 57.4697 48.387 C 0.0 **** 0.0
18251 C 32.4176 58.7591 48.6832 C 0.0 **** 0.0
18252 C 32.9134 59.0456 49.9325 C 0.0 **** 0.0
18253 C 33.0403 58.0122 50.9245 C 0.0 **** 0.0
18254 C 24.6625 45.4059 41.0836 C 0.0 **** 0.0
18255 C 23.2827 45.1928 41.7058 C 0.0 **** 0.0
18256 C 23.5886 44.8485 38.443 C 0.0 **** 0.0
18257 C 25.9586 47.991 41.6287 C 0.0 **** 0.0
18258 C 24.0307 46.7452 36.2297 C 0.0 **** 0.0
18259 C 24.1951 51.7158 35.0142 C 0.0 **** 0.0
18260 C 23.796 54.3038 36.3862 C 0.0 **** 0.0
18261 O 26.1255 55.7941 37.1593 O 0.0 **** 0.0
18262 C 24.1608 59.0007 39.987 C 0.0 **** 0.0
18263 C 24.3715 58.2185 42.6523 C 0.0 **** 0.0
18264 O 29.3765 56.9936 43.4844 O 0.0 **** 0.0
18265 O 26.7827 52.215 42.5383 O 0.0 **** 0.0
18266 O 29.1248 51.0628 43.7586 O 0.0 **** 0.0
18267 O 31.0481 55.5474 45.1551 O 0.0 **** 0.0
18268 C 33.5394 58.3866 52.2802 C 0.0 **** 0.0
18269 C 33.2883 60.4873 50.2095 C 0.0 **** 0.0
18270 H 25.4805 50.436 40.5009 H 0.0 **** 0.0
18271 H 27.0326 50.0098 39.6899 H 0.0 **** 0.0
18272 H 25.7278 49.231 36.1819 H 0.0 **** 0.0
18273 H 23.9431 49.4953 36.2622 H 0.0 **** 0.0
18274 H 27.4037 52.0471 40.3325 H 0.0 **** 0.0
18275 H 26.8048 57.3834 43.2232 H 0.0 **** 0.0
18276 H 26.9915 58.6989 42.1438 H 0.0 **** 0.0
18277 H 24.9731 56.2899 41.8861 H 0.0 **** 0.0
18278 H 24.3693 56.894 39.8092 H 0.0 **** 0.0
18279 H 26.7994 58.7591 39.6618 H 0.0 **** 0.0
18280 H 26.0564 57.8848 38.3671 H 0.0 **** 0.0
18281 H 28.7599 50.6294 46.6471 H 0.0 **** 0.0
18282 H 30.3545 50.21 46.0042 H 0.0 **** 0.0
18283 H 31.1561 50.2772 48.0108 H 0.0 **** 0.0
18284 H 29.7371 51.0062 48.6509 H 0.0 **** 0.0
18285 H 31.4101 50.9974 50.6814 H 0.0 **** 0.0
18286 H 32.6744 50.6479 49.61 H 0.0 **** 0.0
18287 H 34.3313 51.8353 50.8347 H 0.0 **** 0.0
18288 H 33.4119 50.9355 51.9894 H 0.0 **** 0.0
18289 H 33.6288 53.239 52.8887 H 0.0 **** 0.0
18290 H 31.9098 53.0308 52.3649 H 0.0 **** 0.0
18291 H 34.1061 54.3819 50.6821 H 0.0 **** 0.0
18292 H 31.7407 55.3896 52.1551 H 0.0 **** 0.0
18293 H 33.4339 55.7589 52.4322 H 0.0 **** 0.0
18294 H 31.4639 57.2862 47.4317 H 0.0 **** 0.0
18295 H 32.211 59.5612 47.9503 H 0.0 **** 0.0
18296 H 25.2916 45.5499 41.9691 H 0.0 **** 0.0
18297 H 24.963 44.4669 40.6312 H 0.0 **** 0.0
18298 H 22.7858 44.3396 41.3673 H 0.0 **** 0.0
18299 H 22.5474 46.0159 41.4722 H 0.0 **** 0.0
18300 H 23.3368 45.0559 42.8029 H 0.0 **** 0.0
18301 H 23.1976 44.7337 37.4364 H 0.0 **** 0.0
18302 H 22.7136 44.8359 39.0624 H 0.0 **** 0.0
18303 H 24.2466 43.9724 38.6515 H 0.0 **** 0.0
18304 H 25.155 48.0277 42.4347 H 0.0 **** 0.0
18305 H 26.5446 48.8841 41.7715 H 0.0 **** 0.0
18306 H 26.6983 47.2164 41.8207 H 0.0 **** 0.0
18307 H 24.5673 47.3687 35.4878 H 0.0 **** 0.0
18308 H 22.8899 46.8246 36.1083 H 0.0 **** 0.0
18309 H 24.4056 45.7445 35.949 H 0.0 **** 0.0
18310 H 24.2922 52.5423 34.3127 H 0.0 **** 0.0
18311 H 23.1201 51.5074 35.1922 H 0.0 **** 0.0
18312 H 24.6625 50.7951 34.5498 H 0.0 **** 0.0
18313 H 23.6032 55.0403 37.167 H 0.0 **** 0.0
18314 H 22.8391 53.815 36.2201 H 0.0 **** 0.0
18315 H 24.2486 54.7971 35.4558 H 0.0 **** 0.0
18316 H 26.9876 56.3336 37.1448 H 0.0 **** 0.0
18317 H 23.1509 58.9768 40.428 H 0.0 **** 0.0
18318 H 24.0506 59.1824 38.8918 H 0.0 **** 0.0
18319 H 24.6866 59.8673 40.367 H 0.0 **** 0.0
18320 H 24.5164 57.8218 43.6757 H 0.0 **** 0.0
18321 H 23.3088 58.1126 42.4756 H 0.0 **** 0.0
18322 H 24.5508 59.3213 42.6254 H 0.0 **** 0.0
18323 H 29.4585 57.0969 44.4543 H 0.0 **** 0.0
18324 H 26.8271 51.5906 43.331 H 0.0 **** 0.0
18325 H 32.8375 57.9947 53.0298 H 0.0 **** 0.0
18326 H 33.697 59.4495 52.5243 H 0.0 **** 0.0
18327 H 34.5349 57.9044 52.4806 H 0.0 **** 0.0
18328 H 32.7727 60.8617 51.0991 H 0.0 **** 0.0
18329 H 32.9826 61.1605 49.3413 H 0.0 **** 0.0
18330 H 34.3878 60.5398 50.2655 H 0.0 **** 0.0
18331 C 80.9636 61.9126 63.658 C 0.0 **** 0.0
18332 C 80.8114 60.6856 64.2663 C 0.0 **** 0.0
18333 C 80.763 60.5943 65.6878 C 0.0 **** 0.0
18334 C 80.5362 61.7153 66.4726 C 0.0 **** 0.0
18335 C 80.6079 62.9972 65.8565 C 0.0 **** 0.0
18336 C 80.9941 63.1094 64.459 C 0.0 **** 0.0
18337 C 80.218 61.5601 67.9236 C 0.0 **** 0.0
18338 C 80.3687 60.1899 68.5771 C 0.0 **** 0.0
18339 C 80.8692 59.1347 67.8397 C 0.0 **** 0.0
18340 C 80.9272 59.2201 66.3137 C 0.0 **** 0.0
18341 C 81.1873 57.8846 68.4812 C 0.0 **** 0.0
18342 C 80.9923 57.7357 69.8712 C 0.0 **** 0.0
18343 C 80.229 58.7253 70.5311 C 0.0 **** 0.0
18344 C 79.9713 59.972 69.9292 C 0.0 **** 0.0
18345 C 79.1122 60.895 70.6078 C 0.0 **** 0.0
18346 C 78.6496 60.6548 71.9011 C 0.0 **** 0.0
18347 C 79.1565 59.5577 72.5747 C 0.0 **** 0.0
18348 C 79.7491 58.5175 71.8379 C 0.0 **** 0.0
18349 C 79.1829 59.5139 74.1125 C 0.0 **** 0.0
18350 C 78.5319 60.7429 74.8226 C 0.0 **** 0.0
18351 C 77.5899 61.5518 73.9585 C 0.0 **** 0.0
18352 C 77.707 61.4859 72.5107 C 0.0 **** 0.0
18353 C 79.5675 61.6772 75.5196 C 0.0 **** 0.0
18354 C 80.8526 61.8939 74.7491 C 0.0 **** 0.0
18355 C 81.5436 60.5944 74.4518 C 0.0 **** 0.0
18356 C 80.6249 59.3395 74.6 C 0.0 **** 0.0
18357 C 76.7819 62.2267 71.7515 C 0.0 **** 0.0
18358 C 76.0198 63.229 72.3496 C 0.0 **** 0.0
18359 C 75.9384 63.3356 73.7238 C 0.0 **** 0.0
18360 C 76.6898 62.4804 74.5522 C 0.0 **** 0.0
18361 C 75.0375 64.3541 74.3068 C 0.0 **** 0.0
18362 C 73.9415 64.9691 73.4841 C 0.0 **** 0.0
18363 C 74.1386 64.9626 72.1264 C 0.0 **** 0.0
18364 C 75.3174 64.2404 71.5671 C 0.0 **** 0.0
18365 C 73.1079 65.5107 71.1874 C 0.0 **** 0.0
18366 C 72.0403 66.3664 71.8439 C 0.0 **** 0.0
18367 C 71.7067 65.9719 73.2897 C 0.0 **** 0.0
18368 C 72.732 65.3913 74.0697 C 0.0 **** 0.0
18369 N 72.6048 65.3606 75.4339 N 0.0 **** 0.0
18370 C 71.4962 65.8221 76.0868 C 0.0 **** 0.0
18371 C 70.3797 66.2392 75.3416 C 0.0 **** 0.0
18372 C 70.4833 66.2892 73.9123 C 0.0 **** 0.0
18373 C 69.3151 66.7549 73.0858 C 0.0 **** 0.0
18374 C 67.9992 66.8295 73.8124 C 0.0 **** 0.0
18375 C 68.2295 67.4668 75.1802 C 0.0 **** 0.0
18376 C 69.103 66.5623 76.0366 C 0.0 **** 0.0
18377 C 69.2323 67.1267 77.4753 C 0.0 **** 0.0
18378 C 70.5246 66.7336 78.1964 C 0.0 **** 0.0
18379 C 71.5598 66.0431 77.4907 C 0.0 **** 0.0
18380 C 72.6789 65.612 78.2488 C 0.0 **** 0.0
18381 C 72.8528 65.9915 79.6001 C 0.0 **** 0.0
18382 C 71.8928 66.7731 80.2041 C 0.0 **** 0.0
18383 C 70.7682 67.2176 79.5235 C 0.0 **** 0.0
18384 C 81.3486 64.4886 63.8652 C 0.0 **** 0.0
18385 C 82.8445 64.5643 63.588 C 0.0 **** 0.0
18386 C 81.0785 61.9629 62.1397 C 0.0 **** 0.0
18387 C 80.1807 64.2162 66.6148 C 0.0 **** 0.0
18388 C 80.6057 59.4374 63.4835 C 0.0 **** 0.0
18389 C 81.7057 56.703 67.6941 C 0.0 **** 0.0
18390 C 81.7667 56.6434 70.6219 C 0.0 **** 0.0
18391 O 79.7984 57.2248 72.4063 O 0.0 **** 0.0
18392 C 82.8404 60.3054 75.2239 C 0.0 **** 0.0
18393 C 81.7298 62.9587 75.4901 C 0.0 **** 0.0
18394 O 76.5895 62.5573 75.9423 O 0.0 **** 0.0
18395 O 76.4603 61.7642 70.4531 O 0.0 **** 0.0
18396 O 75.7477 64.5594 70.4688 O 0.0 **** 0.0
18397 O 75.2023 64.7291 75.4585 O 0.0 **** 0.0
18398 C 69.7242 68.0905 80.1602 C 0.0 **** 0.0
18399 C 72.1447 67.1745 81.6316 C 0.0 **** 0.0
18400 H 80.8975 62.2644 68.4219 H 0.0 **** 0.0
18401 H 79.1241 61.8703 68.0019 H 0.0 **** 0.0
18402 H 80.1121 58.5874 65.9131 H 0.0 **** 0.0
18403 H 81.8962 58.8105 65.9354 H 0.0 **** 0.0
18404 H 78.9449 61.8358 70.1139 H 0.0 **** 0.0
18405 H 79.0643 62.6465 75.7766 H 0.0 **** 0.0
18406 H 79.8141 61.2187 76.4896 H 0.0 **** 0.0
18407 H 80.5729 62.3791 73.7508 H 0.0 **** 0.0
18408 H 81.8274 60.576 73.3848 H 0.0 **** 0.0
18409 H 80.4649 59.1379 75.6803 H 0.0 **** 0.0
18410 H 81.1608 58.5084 74.132 H 0.0 **** 0.0
18411 H 73.6355 66.16 70.4265 H 0.0 **** 0.0
18412 H 72.611 64.5909 70.6888 H 0.0 **** 0.0
18413 H 71.0533 66.412 71.2333 H 0.0 **** 0.0
18414 H 72.3865 67.4241 71.8351 H 0.0 **** 0.0
18415 H 69.6064 67.7743 72.7824 H 0.0 **** 0.0
18416 H 69.2362 66.0972 72.1675 H 0.0 **** 0.0
18417 H 67.598 65.8224 73.9612 H 0.0 **** 0.0
18418 H 67.2559 67.3936 73.2317 H 0.0 **** 0.0
18419 H 67.2365 67.6868 75.7134 H 0.0 **** 0.0
18420 H 68.7574 68.4283 75.0503 H 0.0 **** 0.0
18421 H 68.5863 65.6235 76.0992 H 0.0 **** 0.0
18422 H 69.2906 68.228 77.3551 H 0.0 **** 0.0
18423 H 68.3349 66.8562 78.0204 H 0.0 **** 0.0
18424 H 73.4988 65.0123 77.784 H 0.0 **** 0.0
18425 H 73.7687 65.6964 80.1225 H 0.0 **** 0.0
18426 H 81.1099 65.3511 64.5023 H 0.0 **** 0.0
18427 H 80.7863 64.621 62.9284 H 0.0 **** 0.0
18428 H 83.0884 63.6423 62.9668 H 0.0 **** 0.0
18429 H 83.4411 64.5519 64.5594 H 0.0 **** 0.0
18430 H 83.079 65.495 63.0577 H 0.0 **** 0.0
18431 H 81.0027 62.9448 61.719 H 0.0 **** 0.0
18432 H 80.257 61.4156 61.602 H 0.0 **** 0.0
18433 H 82.0588 61.538 61.8744 H 0.0 **** 0.0
18434 H 79.6803 64.0145 67.5989 H 0.0 **** 0.0
18435 H 79.3618 64.6949 66.06 H 0.0 **** 0.0
18436 H 80.997 64.9021 66.8729 H 0.0 **** 0.0
18437 H 80.7042 59.5307 62.4019 H 0.0 **** 0.0
18438 H 79.5729 59.0479 63.6483 H 0.0 **** 0.0
18439 H 81.3851 58.6895 63.7474 H 0.0 **** 0.0
18440 H 81.7234 55.7818 68.3108 H 0.0 **** 0.0
18441 H 82.7105 56.9323 67.3764 H 0.0 **** 0.0
18442 H 81.104 56.5551 66.7381 H 0.0 **** 0.0
18443 H 82.182 57.0268 71.5549 H 0.0 **** 0.0
18444 H 82.7199 56.4687 70.0773 H 0.0 **** 0.0
18445 H 81.1962 55.7516 70.8072 H 0.0 **** 0.0
18446 H 79.13 57.0514 73.192 H 0.0 **** 0.0
18447 H 83.658 61.0232 74.8723 H 0.0 **** 0.0
18448 H 83.1261 59.2419 75.0317 H 0.0 **** 0.0
18449 H 82.6579 60.3967 76.339 H 0.0 **** 0.0
18450 H 81.1097 63.8559 75.6888 H 0.0 **** 0.0
18451 H 82.5752 63.3045 74.886 H 0.0 **** 0.0
18452 H 82.1172 62.556 76.4386 H 0.0 **** 0.0
18453 H 75.6434 62.3924 76.2377 H 0.0 **** 0.0
18454 H 75.6636 62.2178 70.0342 H 0.0 **** 0.0
18455 H 69.4963 68.9467 79.457 H 0.0 **** 0.0
18456 H 70.0388 68.4626 81.1434 H 0.0 **** 0.0
18457 H 68.8611 67.4781 80.3817 H 0.0 **** 0.0
18458 H 72.2834 68.2748 81.7324 H 0.0 **** 0.0
18459 H 73.0406 66.6771 82.0424 H 0.0 **** 0.0
18460 H 71.2726 66.8366 82.2374 H 0.0 **** 0.0
18461 C 23.4085 75.7655 -1.03448 C 0.0 **** 0.0
18462 C 24.2954 75.0566 -1.84356 C 0.0 **** 0.0
18463 C 25.6161 74.7577 -1.4647 C 0.0 **** 0.0
18464 C 26.1288 75.2905 -0.287154 C 0.0 **** 0.0
18465 C 25.2289 76.0706 0.543058 C 0.0 **** 0.0
18466 C 23.8782 76.2707 0.174179 C 0.0 **** 0.0
18467 C 27.5837 75.1132 0.0873584 C 0.0 **** 0.0
18468 C 28.4116 74.1789 -0.756441 C 0.0 **** 0.0
18469 C 27.8324 73.5359 -1.90576 C 0.0 **** 0.0
18470 C 26.4364 73.8342 -2.30611 C 0.0 **** 0.0
18471 C 28.6166 72.6853 -2.71043 C 0.0 **** 0.0
18472 C 30.0104 72.5748 -2.43387 C 0.0 **** 0.0
18473 C 30.5438 73.065 -1.24754 C 0.0 **** 0.0
18474 C 29.754 73.9592 -0.444694 C 0.0 **** 0.0
18475 C 30.3094 74.5363 0.731983 C 0.0 **** 0.0
18476 C 31.6603 74.3048 1.12219 C 0.0 **** 0.0
18477 C 32.4507 73.4624 0.288211 C 0.0 **** 0.0
18478 C 31.8395 72.727 -0.795935 C 0.0 **** 0.0
18479 C 33.9723 73.2746 0.475927 C 0.0 **** 0.0
18480 C 34.4677 74.1618 1.63586 C 0.0 **** 0.0
18481 C 33.4918 74.2808 2.73341 C 0.0 **** 0.0
18482 C 32.1905 74.6961 2.40812 C 0.0 **** 0.0
18483 C 35.954 74.0304 1.90122 C 0.0 **** 0.0
18484 C 36.7308 74.4456 0.644841 C 0.0 **** 0.0
18485 C 36.284 73.675 -0.547076 C 0.0 **** 0.0
18486 C 34.7684 73.745 -0.791523 C 0.0 **** 0.0
18487 C 31.4288 75.387 3.40689 C 0.0 **** 0.0
18488 C 31.7089 75.1082 4.74425 C 0.0 **** 0.0
18489 C 32.8912 74.3868 5.04697 C 0.0 **** 0.0
18490 C 33.8738 74.0945 4.08018 C 0.0 **** 0.0
18491 C 33.0516 73.9381 6.44804 C 0.0 **** 0.0
18492 C 32.2851 74.5506 7.52232 C 0.0 **** 0.0
18493 C 31.0566 75.2063 7.2489 C 0.0 **** 0.0
18494 C 30.7135 75.4374 5.81134 C 0.0 **** 0.0
18495 C 30.073 75.4602 8.34138 C 0.0 **** 0.0
18496 C 30.751 75.8209 9.63616 C 0.0 **** 0.0
18497 C 32.1163 75.1799 9.91015 C 0.0 **** 0.0
18498 C 32.8775 74.6801 8.83463 C 0.0 **** 0.0
18499 N 34.2023 74.3555 9.01038 N 0.0 **** 0.0
18500 C 34.8064 74.4526 10.2347 C 0.0 **** 0.0
18501 C 34.0144 74.8136 11.3926 C 0.0 **** 0.0
18502 C 32.68 75.2438 11.2008 C 0.0 **** 0.0
18503 C 31.8264 75.7692 12.366 C 0.0 **** 0.0
18504 C 32.4367 75.4548 13.7318 C 0.0 **** 0.0
18505 C 33.9308 75.7617 13.7122 C 0.0 **** 0.0
18506 C 34.6771 74.7722 12.7462 C 0.0 **** 0.0
18507 C 36.1777 75.1378 12.6916 C 0.0 **** 0.0
18508 C 36.9108 74.3918 11.602 C 0.0 **** 0.0
18509 C 36.2498 74.2406 10.345 C 0.0 **** 0.0
18510 C 36.9952 73.8602 9.18721 C 0.0 **** 0.0
18511 C 38.3556 73.4958 9.34178 C 0.0 **** 0.0
18512 C 38.9801 73.5514 10.5679 C 0.0 **** 0.0
18513 C 38.2522 73.9319 11.726 C 0.0 **** 0.0
18514 C 22.902 76.9131 1.18886 C 0.0 **** 0.0
18515 C 23.0882 78.4204 1.13338 C 0.0 **** 0.0
18516 C 21.984 75.97 -1.48644 C 0.0 **** 0.0
18517 C 25.8011 76.673 1.76988 C 0.0 **** 0.0
18518 C 23.7257 74.4267 -3.09257 C 0.0 **** 0.0
18519 C 27.9951 71.9124 -3.83305 C 0.0 **** 0.0
18520 C 30.8904 72.2159 -3.60234 C 0.0 **** 0.0
18521 O 32.4754 71.5879 -1.35455 O 0.0 **** 0.0
18522 C 36.7086 72.2066 -0.519512 C 0.0 **** 0.0
18523 C 38.2626 74.2652 0.902277 C 0.0 **** 0.0
18524 O 35.133 73.5685 4.43734 O 0.0 **** 0.0
18525 O 30.5528 76.4226 3.0004 O 0.0 **** 0.0
18526 O 29.5845 75.8458 5.55159 O 0.0 **** 0.0
18527 O 33.7542 72.9603 6.70055 O 0.0 **** 0.0
18528 C 38.9301 73.8734 13.0897 C 0.0 **** 0.0
18529 C 40.4593 73.2313 10.6532 C 0.0 **** 0.0
18530 H 28.0315 76.1221 -0.0139082 H 0.0 **** 0.0
18531 H 27.6338 74.7822 1.1066 H 0.0 **** 0.0
18532 H 25.908 72.876 -2.27219 H 0.0 **** 0.0
18533 H 26.4641 74.2351 -3.32716 H 0.0 **** 0.0
18534 H 29.6979 75.002 1.42848 H 0.0 **** 0.0
18535 H 36.2803 74.7617 2.67491 H 0.0 **** 0.0
18536 H 36.3028 73.0055 2.22148 H 0.0 **** 0.0
18537 H 36.6276 75.5186 0.431142 H 0.0 **** 0.0
18538 H 36.837 74.0709 -1.4493 H 0.0 **** 0.0
18539 H 34.4259 73.2417 -1.68842 H 0.0 **** 0.0
18540 H 34.4446 74.7623 -0.940919 H 0.0 **** 0.0
18541 H 29.3946 76.3192 8.07366 H 0.0 **** 0.0
18542 H 29.4978 74.544 8.47684 H 0.0 **** 0.0
18543 H 29.9753 75.6149 10.4452 H 0.0 **** 0.0
18544 H 30.9308 76.9291 9.60557 H 0.0 **** 0.0
18545 H 31.6142 76.8587 12.1614 H 0.0 **** 0.0
18546 H 30.8385 75.2556 12.3749 H 0.0 **** 0.0
18547 H 32.2606 74.3653 14.0036 H 0.0 **** 0.0
18548 H 31.8743 76.0717 14.4261 H 0.0 **** 0.0
18549 H 34.3182 75.6021 14.7297 H 0.0 **** 0.0
18550 H 34.1484 76.7625 13.4494 H 0.0 **** 0.0
18551 H 34.5297 73.7923 13.1824 H 0.0 **** 0.0
18552 H 36.3144 76.1723 12.4127 H 0.0 **** 0.0
18553 H 36.6969 75.0698 13.6662 H 0.0 **** 0.0
18554 H 36.5642 73.8083 8.18323 H 0.0 **** 0.0
18555 H 38.8506 73.24 8.42146 H 0.0 **** 0.0
18556 H 23.0211 76.5058 2.21326 H 0.0 **** 0.0
18557 H 21.8234 76.6364 1.08009 H 0.0 **** 0.0
18558 H 22.9042 78.7226 0.0449032 H 0.0 **** 0.0
18559 H 24.0617 78.8281 1.52428 H 0.0 **** 0.0
18560 H 22.2973 78.8442 1.72756 H 0.0 **** 0.0
18561 H 21.9471 76.3382 -2.53537 H 0.0 **** 0.0
18562 H 21.4215 76.7641 -1.02883 H 0.0 **** 0.0
18563 H 21.4161 75.0138 -1.40388 H 0.0 **** 0.0
18564 H 25.076 77.0932 2.46422 H 0.0 **** 0.0
18565 H 26.5818 77.4162 1.49432 H 0.0 **** 0.0
18566 H 26.2362 75.8739 2.3589 H 0.0 **** 0.0
18567 H 24.3823 73.7107 -3.67582 H 0.0 **** 0.0
18568 H 23.3829 75.1976 -3.82251 H 0.0 **** 0.0
18569 H 22.9168 73.7501 -2.76616 H 0.0 **** 0.0
18570 H 28.6644 71.1279 -4.18668 H 0.0 **** 0.0
18571 H 27.7826 72.5835 -4.68845 H 0.0 **** 0.0
18572 H 27.0974 71.3969 -3.47121 H 0.0 **** 0.0
18573 H 31.8751 72.6312 -3.45442 H 0.0 **** 0.0
18574 H 30.5045 72.7851 -4.50777 H 0.0 **** 0.0
18575 H 30.9508 71.1526 -3.77567 H 0.0 **** 0.0
18576 H 33.2877 71.2858 -0.867894 H 0.0 **** 0.0
18577 H 37.8222 72.0984 -0.508774 H 0.0 **** 0.0
18578 H 36.4388 71.7124 -1.47554 H 0.0 **** 0.0
18579 H 36.2683 71.6188 0.325219 H 0.0 **** 0.0
18580 H 38.6438 75.1507 1.34644 H 0.0 **** 0.0
18581 H 38.7895 74.1738 -0.0620371 H 0.0 **** 0.0
18582 H 38.5081 73.3732 1.51415 H 0.0 **** 0.0
18583 H 35.3981 73.8853 5.35359 H 0.0 **** 0.0
18584 H 30.5529 77.187 3.65164 H 0.0 **** 0.0
18585 H 39.0828 74.8977 13.4572 H 0.0 **** 0.0
18586 H 39.9197 73.3587 13.0596 H 0.0 **** 0.0
18587 H 38.2692 73.3283 13.7753 H 0.0 **** 0.0
18588 H 41.0295 74.0024 11.2539 H 0.0 **** 0.0
18589 H 40.8551 73.3006 9.64833 H 0.0 **** 0.0
18590 H 40.5824 72.2718 11.1993 H 0.0 **** 0.0
18591 C 49.4763 31.7508 27.1614 C 0.0 **** 0.0
18592 C 49.1536 30.6162 28.0022 C 0.0 **** 0.0
18593 C 49.9951 29.4578 28.0166 C 0.0 **** 0.0
18594 C 51.1655 29.4585 27.2279 C 0.0 **** 0.0
18595 C 51.4692 30.5575 26.4037 C 0.0 **** 0.0
18596 C 50.6025 31.6658 26.2803 C 0.0 **** 0.0
18597 C 52.1031 28.294 27.3061 C 0.0 **** 0.0
18598 C 51.8033 27.1636 28.2717 C 0.0 **** 0.0
18599 C 50.6279 27.1986 29.0762 C 0.0 **** 0.0
18600 C 49.6414 28.3505 28.9708 C 0.0 **** 0.0
18601 C 50.3781 26.1693 30.0217 C 0.0 **** 0.0
18602 C 51.3101 25.1254 30.1281 C 0.0 **** 0.0
18603 C 52.559 25.2417 29.5214 C 0.0 **** 0.0
18604 C 52.7778 26.1559 28.477 C 0.0 **** 0.0
18605 C 54.0064 26.0994 27.7581 C 0.0 **** 0.0
18606 C 55.0549 25.2407 28.1241 C 0.0 **** 0.0
18607 C 54.7172 24.2139 29.0411 C 0.0 **** 0.0
18608 C 53.6187 24.3786 29.9018 C 0.0 **** 0.0
18609 C 55.647 23.0715 29.337 C 0.0 **** 0.0
18610 C 56.8849 22.9941 28.4815 C 0.0 **** 0.0
18611 C 57.3229 24.3704 27.9313 C 0.0 **** 0.0
18612 C 56.3716 25.3577 27.58 C 0.0 **** 0.0
18613 C 56.879 21.9505 27.3492 C 0.0 **** 0.0
18614 C 55.4448 21.5727 26.9194 C 0.0 **** 0.0
18615 C 54.6379 21.0393 27.9997 C 0.0 **** 0.0
18616 C 54.9423 21.6774 29.3886 C 0.0 **** 0.0
18617 C 56.7709 26.5119 26.8425 C 0.0 **** 0.0
18618 C 58.0178 26.4965 26.1872 C 0.0 **** 0.0
18619 C 59.0364 25.6262 26.6217 C 0.0 **** 0.0
18620 C 58.6676 24.5263 27.4466 C 0.0 **** 0.0
18621 C 60.3983 25.7973 26.0094 C 0.0 **** 0.0
18622 C 60.5796 26.6038 24.7821 C 0.0 **** 0.0
18623 C 59.456 27.2015 24.1758 C 0.0 **** 0.0
18624 C 58.1764 27.2286 24.8885 C 0.0 **** 0.0
18625 C 59.5524 27.9071 22.8343 C 0.0 **** 0.0
18626 C 60.8357 27.4181 22.0968 C 0.0 **** 0.0
18627 C 62.0269 27.551 22.9963 C 0.0 **** 0.0
18628 C 61.8909 26.8887 24.2342 C 0.0 **** 0.0
18629 N 63.0221 26.6362 24.9506 N 0.0 **** 0.0
18630 C 64.2795 27.0405 24.5851 C 0.0 **** 0.0
18631 C 64.3971 27.8829 23.4367 C 0.0 **** 0.0
18632 C 63.2665 28.1834 22.6661 C 0.0 **** 0.0
18633 C 63.3921 29.0048 21.4314 C 0.0 **** 0.0
18634 C 64.7165 29.7235 21.1657 C 0.0 **** 0.0
18635 C 65.8687 28.8381 21.5464 C 0.0 **** 0.0
18636 C 65.7434 28.429 23.0542 C 0.0 **** 0.0
18637 C 66.8579 27.3717 23.2922 C 0.0 **** 0.0
18638 C 66.7076 26.6512 24.6295 C 0.0 **** 0.0
18639 C 65.4619 26.6189 25.2908 C 0.0 **** 0.0
18640 C 65.4091 25.9956 26.5575 C 0.0 **** 0.0
18641 C 66.4814 25.4175 27.1432 C 0.0 **** 0.0
18642 C 67.7257 25.3979 26.4436 C 0.0 **** 0.0
18643 C 67.8567 26.0605 25.1792 C 0.0 **** 0.0
18644 C 50.7429 32.6346 25.0948 C 0.0 **** 0.0
18645 C 49.6468 32.2836 24.0828 C 0.0 **** 0.0
18646 C 48.644 33.0533 27.2585 C 0.0 **** 0.0
18647 C 52.7008 30.5688 25.5499 C 0.0 **** 0.0
18648 C 47.9157 30.7056 28.8758 C 0.0 **** 0.0
18649 C 49.1284 26.2081 30.8688 C 0.0 **** 0.0
18650 C 50.7813 23.7771 30.686 C 0.0 **** 0.0
18651 O 53.6127 23.7485 31.1606 O 0.0 **** 0.0
18652 C 54.6846 19.4851 28.1716 C 0.0 **** 0.0
18653 C 55.5108 20.6625 25.6619 C 0.0 **** 0.0
18654 O 59.546 23.4865 27.8058 O 0.0 **** 0.0
18655 O 56.0616 27.7039 26.9708 O 0.0 **** 0.0
18656 O 57.2482 27.8562 24.3436 O 0.0 **** 0.0
18657 O 61.3471 25.4461 26.6953 O 0.0 **** 0.0
18658 C 69.1615 25.9527 24.3398 C 0.0 **** 0.0
18659 C 68.9342 24.7369 27.0935 C 0.0 **** 0.0
18660 H 52.1141 27.8044 26.3253 H 0.0 **** 0.0
18661 H 53.1298 28.6904 27.5009 H 0.0 **** 0.0
18662 H 49.6542 28.8017 29.9927 H 0.0 **** 0.0
18663 H 48.6635 27.9098 28.718 H 0.0 **** 0.0
18664 H 54.0954 26.662 26.8492 H 0.0 **** 0.0
18665 H 57.4258 22.3347 26.4324 H 0.0 **** 0.0
18666 H 57.4065 21.0346 27.6997 H 0.0 **** 0.0
18667 H 54.9765 22.5572 26.6664 H 0.0 **** 0.0
18668 H 53.5806 21.2789 27.8076 H 0.0 **** 0.0
18669 H 55.6025 21.0009 29.9775 H 0.0 **** 0.0
18670 H 54.0091 21.6622 30.002 H 0.0 **** 0.0
18671 H 58.6333 27.7249 22.2055 H 0.0 **** 0.0
18672 H 59.5343 29.0339 23.0079 H 0.0 **** 0.0
18673 H 60.9382 28.0107 21.1642 H 0.0 **** 0.0
18674 H 60.7335 26.3742 21.6977 H 0.0 **** 0.0
18675 H 63.1565 28.3193 20.5476 H 0.0 **** 0.0
18676 H 62.6506 29.7807 21.3798 H 0.0 **** 0.0
18677 H 64.8348 30.6005 21.7994 H 0.0 **** 0.0
18678 H 64.7896 29.9801 20.0874 H 0.0 **** 0.0
18679 H 66.8251 29.408 21.4304 H 0.0 **** 0.0
18680 H 65.8143 27.9342 20.9007 H 0.0 **** 0.0
18681 H 65.9033 29.2923 23.7534 H 0.0 **** 0.0
18682 H 66.9441 26.6412 22.4815 H 0.0 **** 0.0
18683 H 67.7414 27.9644 23.2321 H 0.0 **** 0.0
18684 H 64.4241 25.9687 27.059 H 0.0 **** 0.0
18685 H 66.2536 25.0692 28.2034 H 0.0 **** 0.0
18686 H 51.6929 32.5871 24.593 H 0.0 **** 0.0
18687 H 50.7119 33.7085 25.4386 H 0.0 **** 0.0
18688 H 48.6546 32.1741 24.5668 H 0.0 **** 0.0
18689 H 49.9033 31.3153 23.5839 H 0.0 **** 0.0
18690 H 49.588 33.007 23.2924 H 0.0 **** 0.0
18691 H 47.6436 32.9386 26.7815 H 0.0 **** 0.0
18692 H 49.1033 33.9305 26.8044 H 0.0 **** 0.0
18693 H 48.4262 33.291 28.3202 H 0.0 **** 0.0
18694 H 53.2703 31.5181 25.6998 H 0.0 **** 0.0
18695 H 52.4133 30.3946 24.4874 H 0.0 **** 0.0
18696 H 53.4819 29.8645 25.8109 H 0.0 **** 0.0
18697 H 47.1471 31.4666 28.5495 H 0.0 **** 0.0
18698 H 48.2499 30.8887 29.9257 H 0.0 **** 0.0
18699 H 47.3745 29.7159 28.8666 H 0.0 **** 0.0
18700 H 49.2643 25.7146 31.8224 H 0.0 **** 0.0
18701 H 48.2992 25.7065 30.3418 H 0.0 **** 0.0
18702 H 48.7963 27.2486 31.126 H 0.0 **** 0.0
18703 H 51.4035 22.8585 30.489 H 0.0 **** 0.0
18704 H 49.7504 23.5877 30.2748 H 0.0 **** 0.0
18705 H 50.613 23.8701 31.7599 H 0.0 **** 0.0
18706 H 54.4471 23.2974 31.4477 H 0.0 **** 0.0
18707 H 54.2077 18.9522 27.2668 H 0.0 **** 0.0
18708 H 54.1398 19.2166 29.1014 H 0.0 **** 0.0
18709 H 55.7382 19.1463 28.2653 H 0.0 **** 0.0
18710 H 55.9573 21.2733 24.8821 H 0.0 **** 0.0
18711 H 54.5279 20.2324 25.3643 H 0.0 **** 0.0
18712 H 56.1999 19.7474 25.8627 H 0.0 **** 0.0
18713 H 60.2374 23.2623 27.1051 H 0.0 **** 0.0
18714 H 56.5875 28.5159 26.663 H 0.0 **** 0.0
18715 H 69.4176 26.8554 23.7557 H 0.0 **** 0.0
18716 H 69.0367 25.106 23.6416 H 0.0 **** 0.0
18717 H 70.0576 25.8394 24.9542 H 0.0 **** 0.0
18718 H 69.7712 25.4465 27.1425 H 0.0 **** 0.0
18719 H 69.3198 23.9372 26.4815 H 0.0 **** 0.0
18720 H 68.7864 24.3657 28.1449 H 0.0 **** 0.0
18721 C 19.4391 38.4691 93.6952 C 0.0 **** 0.0
18722 C 18.8422 39.5987 94.2831 C 0.0 **** 0.0
18723 C 17.6092 39.4226 94.9964 C 0.0 **** 0.0
18724 C 16.9435 38.1725 95.0206 C 0.0 **** 0.0
18725 C 17.6169 37.0246 94.4889 C 0.0 **** 0.0
18726 C 18.9042 37.1618 93.8738 C 0.0 **** 0.0
18727 C 15.6432 38.0243 95.7802 C 0.0 **** 0.0
18728 C 14.9558 39.2732 96.3158 C 0.0 **** 0.0
18729 C 15.6236 40.5064 96.2436 C 0.0 **** 0.0
18730 C 16.9831 40.6377 95.5647 C 0.0 **** 0.0
18731 C 15.0724 41.6379 96.867 C 0.0 **** 0.0
18732 C 13.8732 41.5276 97.6925 C 0.0 **** 0.0
18733 C 13.2857 40.2578 97.8648 C 0.0 **** 0.0
18734 C 13.6639 39.1969 97.0199 C 0.0 **** 0.0
18735 C 12.7629 38.0912 96.914 C 0.0 **** 0.0
18736 C 11.5176 38.0435 97.5879 C 0.0 **** 0.0
18737 C 11.4461 38.8753 98.7613 C 0.0 **** 0.0
18738 C 12.3736 39.9408 98.917 C 0.0 **** 0.0
18739 C 10.4698 38.4561 99.8635 C 0.0 **** 0.0
18740 C 9.08856 38.0371 99.3302 C 0.0 **** 0.0
18741 C 9.21976 37.1643 98.0504 C 0.0 **** 0.0
18742 C 10.4164 37.2349 97.2495 C 0.0 **** 0.0
18743 C 8.07494 39.2448 99.1853 C 0.0 **** 0.0
18744 C 8.69975 40.6524 99.3102 C 0.0 **** 0.0
18745 C 9.39463 40.7588 100.614 C 0.0 **** 0.0
18746 C 10.1659 39.4711 101.043 C 0.0 **** 0.0
18747 C 10.3581 36.6123 95.992 C 0.0 **** 0.0
18748 C 9.45347 35.5983 95.7391 C 0.0 **** 0.0
18749 C 8.30528 35.4487 96.5404 C 0.0 **** 0.0
18750 C 8.17419 36.2586 97.6997 C 0.0 **** 0.0
18751 C 7.28265 34.4686 96.1309 C 0.0 **** 0.0
18752 C 7.60651 33.4272 95.1001 C 0.0 **** 0.0
18753 C 8.77376 33.5942 94.3034 C 0.0 **** 0.0
18754 C 9.77591 34.5539 94.717 C 0.0 **** 0.0
18755 C 9.06524 32.7392 93.0969 C 0.0 **** 0.0
18756 C 7.88025 31.8993 92.68 C 0.0 **** 0.0
18757 C 7.11738 31.3584 93.9239 C 0.0 **** 0.0
18758 C 6.83882 32.2681 94.9722 C 0.0 **** 0.0
18759 N 5.87541 31.9436 95.8985 N 0.0 **** 0.0
18760 C 5.15865 30.7875 95.826 C 0.0 **** 0.0
18761 C 5.56526 29.7527 94.9652 C 0.0 **** 0.0
18762 C 6.50891 30.0744 93.9361 C 0.0 **** 0.0
18763 C 6.80469 29.0764 92.8735 C 0.0 **** 0.0
18764 C 6.49028 27.6515 93.2678 C 0.0 **** 0.0
18765 C 5.03078 27.6003 93.7693 C 0.0 **** 0.0
18766 C 4.95275 28.3638 95.0935 C 0.0 **** 0.0
18767 C 3.52591 28.4985 95.4965 C 0.0 **** 0.0
18768 C 3.41918 29.3267 96.7446 C 0.0 **** 0.0
18769 C 4.15774 30.5437 96.7966 C 0.0 **** 0.0
18770 C 3.91924 31.4907 97.8211 C 0.0 **** 0.0
18771 C 3.03721 31.1926 98.8582 C 0.0 **** 0.0
18772 C 2.26509 29.9991 98.8105 C 0.0 **** 0.0
18773 C 2.47845 29.0608 97.7829 C 0.0 **** 0.0
18774 C 19.691 35.9088 93.4121 C 0.0 **** 0.0
18775 C 19.5681 35.5314 91.8743 C 0.0 **** 0.0
18776 C 20.7811 38.6227 92.9768 C 0.0 **** 0.0
18777 C 16.933 35.6531 94.534 C 0.0 **** 0.0
18778 C 19.4793 40.9788 94.1258 C 0.0 **** 0.0
18779 C 15.8083 42.9836 96.7619 C 0.0 **** 0.0
18780 C 13.1834 42.712 98.3299 C 0.0 **** 0.0
18781 O 12.5631 40.5312 100.178 O 0.0 **** 0.0
18782 C 8.44509 41.1928 101.747 C 0.0 **** 0.0
18783 C 7.76171 41.8597 98.9961 C 0.0 **** 0.0
18784 O 7.17876 36.0355 98.68 O 0.0 **** 0.0
18785 O 11.1083 37.096 94.9347 O 0.0 **** 0.0
18786 O 10.8907 34.5296 94.227 O 0.0 **** 0.0
18787 O 6.13506 34.5472 96.5404 O 0.0 **** 0.0
18788 C 1.6079 27.8451 97.6896 C 0.0 **** 0.0
18789 C 1.19369 29.8862 99.8311 C 0.0 **** 0.0
18790 H 14.8993 37.6457 95.0634 H 0.0 **** 0.0
18791 H 15.8741 37.3426 96.602 H 0.0 **** 0.0
18792 H 17.6479 41.0329 96.3209 H 0.0 **** 0.0
18793 H 16.8254 41.2764 94.6629 H 0.0 **** 0.0
18794 H 13.0138 37.3356 96.2393 H 0.0 **** 0.0
18795 H 7.59283 39.171 98.168 H 0.0 **** 0.0
18796 H 7.20457 39.0361 99.9054 H 0.0 **** 0.0
18797 H 9.45224 40.7578 98.4667 H 0.0 **** 0.0
18798 H 10.1413 41.5968 100.448 H 0.0 **** 0.0
18799 H 9.47363 38.945 101.758 H 0.0 **** 0.0
18800 H 11.0605 39.6297 101.706 H 0.0 **** 0.0
18801 H 9.31576 33.3516 92.206 H 0.0 **** 0.0
18802 H 9.91855 32.0259 93.3267 H 0.0 **** 0.0
18803 H 8.2593 31.087 92.0945 H 0.0 **** 0.0
18804 H 7.17417 32.4839 92.0431 H 0.0 **** 0.0
18805 H 6.20826 29.363 91.9756 H 0.0 **** 0.0
18806 H 7.8982 29.0779 92.617 H 0.0 **** 0.0
18807 H 7.16141 27.378 94.087 H 0.0 **** 0.0
18808 H 6.56719 26.999 92.3552 H 0.0 **** 0.0
18809 H 4.7461 26.5389 93.9125 H 0.0 **** 0.0
18810 H 4.35214 27.9368 92.9771 H 0.0 **** 0.0
18811 H 5.52014 27.7376 95.8584 H 0.0 **** 0.0
18812 H 3.03948 29.0398 94.6474 H 0.0 **** 0.0
18813 H 3.01912 27.4867 95.5363 H 0.0 **** 0.0
18814 H 4.61096 32.339 97.9568 H 0.0 **** 0.0
18815 H 2.93389 31.8293 99.724 H 0.0 **** 0.0
18816 H 19.2887 35.0242 93.9687 H 0.0 **** 0.0
18817 H 20.754 35.952 93.6622 H 0.0 **** 0.0
18818 H 19.9326 36.3811 91.2263 H 0.0 **** 0.0
18819 H 18.4996 35.4425 91.6345 H 0.0 **** 0.0
18820 H 20.0418 34.5642 91.6894 H 0.0 **** 0.0
18821 H 20.6534 38.274 91.9447 H 0.0 **** 0.0
18822 H 21.5455 37.9891 93.5294 H 0.0 **** 0.0
18823 H 21.1946 39.6342 92.7808 H 0.0 **** 0.0
18824 H 15.8597 35.7692 94.6318 H 0.0 **** 0.0
18825 H 17.3415 34.9464 95.2918 H 0.0 **** 0.0
18826 H 17.0717 35.0882 93.5719 H 0.0 **** 0.0
18827 H 20.5485 40.8496 94.4031 H 0.0 **** 0.0
18828 H 19.1385 41.8156 94.7351 H 0.0 **** 0.0
18829 H 19.4739 41.341 93.0727 H 0.0 **** 0.0
18830 H 15.8397 43.3963 95.7597 H 0.0 **** 0.0
18831 H 16.8501 42.8412 97.0144 H 0.0 **** 0.0
18832 H 15.3727 43.7106 97.5107 H 0.0 **** 0.0
18833 H 13.6959 43.0016 99.2702 H 0.0 **** 0.0
18834 H 12.0456 42.5559 98.52 H 0.0 **** 0.0
18835 H 13.1925 43.6012 97.6199 H 0.0 **** 0.0
18836 H 13.4197 41.1089 100.306 H 0.0 **** 0.0
18837 H 8.11838 42.2793 101.652 H 0.0 **** 0.0
18838 H 8.98331 41.0977 102.723 H 0.0 **** 0.0
18839 H 7.49428 40.5592 101.767 H 0.0 **** 0.0
18840 H 7.37973 41.7862 97.9681 H 0.0 **** 0.0
18841 H 8.30818 42.793 99.0796 H 0.0 **** 0.0
18842 H 6.873 41.8601 99.6769 H 0.0 **** 0.0
18843 H 6.77364 35.1355 98.6356 H 0.0 **** 0.0
18844 H 10.7592 36.8559 93.9995 H 0.0 **** 0.0
18845 H 0.961129 27.8426 96.8339 H 0.0 **** 0.0
18846 H 0.940945 27.6535 98.5345 H 0.0 **** 0.0
18847 H 2.26306 26.9741 97.5539 H 0.0 **** 0.0
18848 H 0.199338 29.8926 99.3232 H 0.0 **** 0.0
18849 H 1.08515 30.7097 100.572 H 0.0 **** 0.0
18850 H 1.38634 28.9777 100.424 H 0.0 **** 0.0
18851 C 87.5372 21.7392 77.8522 C 0.0 **** 0.0
18852 C 86.6597 21.5368 78.9318 C 0.0 **** 0.0
18853 C 85.9784 20.2854 79.1304 C 0.0 **** 0.0
18854 C 86.2587 19.1942 78.3018 C 0.0 **** 0.0
18855 C 87.2469 19.3574 77.2792 C 0.0 **** 0.0
18856 C 87.8188 20.6245 76.9933 C 0.0 **** 0.0
18857 C 85.4193 17.9447 78.3642 C 0.0 **** 0.0
18858 C 84.1924 17.9776 79.2412 C 0.0 **** 0.0
18859 C 84.1111 18.9504 80.2594 C 0.0 **** 0.0
18860 C 85.0775 20.1042 80.2851 C 0.0 **** 0.0
18861 C 83.1493 18.829 81.3126 C 0.0 **** 0.0
18862 C 82.1277 17.8689 81.184 C 0.0 **** 0.0
18863 C 82.0052 17.1331 79.962 C 0.0 **** 0.0
18864 C 83.1379 17.0606 79.0546 C 0.0 **** 0.0
18865 C 83.1258 16.0735 78.0375 C 0.0 **** 0.0
18866 C 82.0641 15.1427 77.9193 C 0.0 **** 0.0
18867 C 80.846 15.5156 78.5378 C 0.0 **** 0.0
18868 C 80.8557 16.3987 79.6167 C 0.0 **** 0.0
18869 C 79.5481 14.9351 78.0187 C 0.0 **** 0.0
18870 C 79.6547 13.8593 76.9177 C 0.0 **** 0.0
18871 C 81.0149 13.1867 76.8492 C 0.0 **** 0.0
18872 C 82.1911 13.8768 77.23 C 0.0 **** 0.0
18873 C 79.2576 14.3894 75.5141 C 0.0 **** 0.0
18874 C 79.4176 15.9193 75.3483 C 0.0 **** 0.0
18875 C 78.5545 16.6995 76.276 C 0.0 **** 0.0
18876 C 78.4315 15.9959 77.6902 C 0.0 **** 0.0
18877 C 83.4672 13.2098 77.0102 C 0.0 **** 0.0
18878 C 83.4968 11.9398 76.3096 C 0.0 **** 0.0
18879 C 82.32 11.2837 75.9696 C 0.0 **** 0.0
18880 C 81.0835 11.9163 76.2385 C 0.0 **** 0.0
18881 C 82.3269 9.89697 75.3884 C 0.0 **** 0.0
18882 C 83.6255 9.12904 75.3496 C 0.0 **** 0.0
18883 C 84.8315 9.84369 75.5359 C 0.0 **** 0.0
18884 C 84.8271 11.276 75.9182 C 0.0 **** 0.0
18885 C 86.0898 9.08792 75.581 C 0.0 **** 0.0
18886 C 86.0746 8.01209 74.4962 C 0.0 **** 0.0
18887 C 84.833 7.17222 74.651 C 0.0 **** 0.0
18888 C 83.6565 7.77264 75.0679 C 0.0 **** 0.0
18889 N 82.4867 7.10804 75.0496 N 0.0 **** 0.0
18890 C 82.3567 5.84613 74.5453 C 0.0 **** 0.0
18891 C 83.5022 5.1593 74.1061 C 0.0 **** 0.0
18892 C 84.7344 5.80312 74.2102 C 0.0 **** 0.0
18893 C 85.9661 5.22093 73.5171 C 0.0 **** 0.0
18894 C 85.8539 3.7415 73.1724 C 0.0 **** 0.0
18895 C 84.5122 3.37374 72.557 C 0.0 **** 0.0
18896 C 83.358 3.75213 73.4754 C 0.0 **** 0.0
18897 C 82.04 3.65668 72.7132 C 0.0 **** 0.0
18898 C 80.8385 4.19122 73.5139 C 0.0 **** 0.0
18899 C 81.0636 5.38065 74.2941 C 0.0 **** 0.0
18900 C 79.9526 6.01557 74.8748 C 0.0 **** 0.0
18901 C 78.6888 5.49258 74.7268 C 0.0 **** 0.0
18902 C 78.4783 4.26951 74.0471 C 0.0 **** 0.0
18903 C 79.5008 3.64684 73.329 C 0.0 **** 0.0
18904 C 88.6624 20.7823 75.718 C 0.0 **** 0.0
18905 C 87.8299 21.2507 74.5094 C 0.0 **** 0.0
18906 C 87.9624 23.1291 77.4293 C 0.0 **** 0.0
18907 C 87.7411 18.1098 76.5153 C 0.0 **** 0.0
18908 C 86.3568 22.7623 79.8634 C 0.0 **** 0.0
18909 C 83.302 19.6317 82.6244 C 0.0 **** 0.0
18910 C 81.2838 17.5009 82.4204 C 0.0 **** 0.0
18911 O 79.6526 16.5234 80.3818 O 0.0 **** 0.0
18912 C 77.1597 17.0547 75.7276 C 0.0 **** 0.0
18913 C 79.2729 16.251 73.8414 C 0.0 **** 0.0
18914 O 79.857 11.2366 75.9781 O 0.0 **** 0.0
18915 O 84.5824 13.8145 77.5775 O 0.0 **** 0.0
18916 O 85.8385 11.9258 75.8085 O 0.0 **** 0.0
18917 O 81.2488 9.42405 74.9507 O 0.0 **** 0.0
18918 C 79.2245 2.55886 72.2799 C 0.0 **** 0.0
18919 C 77.1405 3.5998 74.2582 C 0.0 **** 0.0
18920 H 85.0929 17.7539 77.3622 H 0.0 **** 0.0
18921 H 86.0313 17.1453 78.8286 H 0.0 **** 0.0
18922 H 85.7181 19.9549 81.1928 H 0.0 **** 0.0
18923 H 84.4767 20.9558 80.3933 H 0.0 **** 0.0
18924 H 83.9443 15.9407 77.3411 H 0.0 **** 0.0
18925 H 79.8006 13.91 74.728 H 0.0 **** 0.0
18926 H 78.15 14.1612 75.4163 H 0.0 **** 0.0
18927 H 80.4877 16.1374 75.66 H 0.0 **** 0.0
18928 H 79.0196 17.6644 76.4769 H 0.0 **** 0.0
18929 H 77.4282 15.4973 77.7173 H 0.0 **** 0.0
18930 H 78.3866 16.7637 78.473 H 0.0 **** 0.0
18931 H 86.9284 9.74455 75.4348 H 0.0 **** 0.0
18932 H 86.177 8.63291 76.6131 H 0.0 **** 0.0
18933 H 86.9654 7.41037 74.6175 H 0.0 **** 0.0
18934 H 86.0866 8.56141 73.52 H 0.0 **** 0.0
18935 H 86.1356 5.76564 72.5719 H 0.0 **** 0.0
18936 H 86.869 5.30931 74.1167 H 0.0 **** 0.0
18937 H 86.005 3.06909 74.0268 H 0.0 **** 0.0
18938 H 86.6262 3.53395 72.4201 H 0.0 **** 0.0
18939 H 84.464 2.2923 72.3323 H 0.0 **** 0.0
18940 H 84.4935 3.95892 71.5691 H 0.0 **** 0.0
18941 H 83.2966 2.97438 74.2586 H 0.0 **** 0.0
18942 H 82.1787 4.28285 71.8057 H 0.0 **** 0.0
18943 H 81.9124 2.59267 72.3515 H 0.0 **** 0.0
18944 H 80.0983 6.8885 75.5088 H 0.0 **** 0.0
18945 H 77.854 5.95213 75.3244 H 0.0 **** 0.0
18946 H 89.1651 19.8268 75.482 H 0.0 **** 0.0
18947 H 89.5638 21.4389 75.8538 H 0.0 **** 0.0
18948 H 87.3079 22.1886 74.7704 H 0.0 **** 0.0
18949 H 87.0128 20.5028 74.3882 H 0.0 **** 0.0
18950 H 88.4531 21.3388 73.5426 H 0.0 **** 0.0
18951 H 87.052 23.7657 77.2302 H 0.0 **** 0.0
18952 H 88.654 23.1633 76.5768 H 0.0 **** 0.0
18953 H 88.5568 23.5301 78.2944 H 0.0 **** 0.0
18954 H 87.4147 17.1221 76.9114 H 0.0 **** 0.0
18955 H 88.8938 18.0281 76.5202 H 0.0 **** 0.0
18956 H 87.3163 18.1221 75.4861 H 0.0 **** 0.0
18957 H 86.11 22.4453 80.871 H 0.0 **** 0.0
18958 H 85.5424 23.3 79.4277 H 0.0 **** 0.0
18959 H 87.1658 23.4708 79.9422 H 0.0 **** 0.0
18960 H 83.7457 19.0343 83.4162 H 0.0 **** 0.0
18961 H 82.2983 19.9633 82.9688 H 0.0 **** 0.0
18962 H 83.8822 20.5556 82.4519 H 0.0 **** 0.0
18963 H 80.4623 18.2181 82.5681 H 0.0 **** 0.0
18964 H 82.0249 17.449 83.2737 H 0.0 **** 0.0
18965 H 80.8477 16.499 82.4894 H 0.0 **** 0.0
18966 H 79.0058 15.7209 80.4135 H 0.0 **** 0.0
18967 H 77.3073 17.7181 74.8441 H 0.0 **** 0.0
18968 H 76.5586 17.5877 76.4958 H 0.0 **** 0.0
18969 H 76.6418 16.1512 75.3106 H 0.0 **** 0.0
18970 H 80.1037 15.7852 73.2922 H 0.0 **** 0.0
18971 H 79.2758 17.3367 73.6949 H 0.0 **** 0.0
18972 H 78.294 15.8325 73.4894 H 0.0 **** 0.0
18973 H 79.5667 11.3791 75.0085 H 0.0 **** 0.0
18974 H 85.377 13.1937 77.8334 H 0.0 **** 0.0
18975 H 79.448 2.92065 71.2662 H 0.0 **** 0.0
18976 H 78.1959 2.16967 72.3744 H 0.0 **** 0.0
18977 H 79.8607 1.66042 72.5443 H 0.0 **** 0.0
18978 H 76.5103 3.83054 73.4095 H 0.0 **** 0.0
18979 H 76.6275 3.95874 75.1669 H 0.0 **** 0.0
18980 H 77.2529 2.53289 74.4252 H 0.0 **** 0.0
18981 C 22.1025 103.61 35.8995 C 0.0 **** 0.0
18982 C 21.5451 102.439 35.2445 C 0.0 **** 0.0
18983 C 21.8194 101.156 35.7072 C 0.0 **** 0.0
18984 C 22.5945 100.978 36.8726 C 0.0 **** 0.0
18985 C 23.0707 102.103 37.5995 C 0.0 **** 0.0
18986 C 22.7773 103.43 37.1481 C 0.0 **** 0.0
18987 C 22.9069 99.5831 37.3771 C 0.0 **** 0.0
18988 C 22.5575 98.4134 36.4617 C 0.0 **** 0.0
18989 C 22.0152 98.6354 35.1705 C 0.0 **** 0.0
18990 C 21.4592 99.9877 34.8091 C 0.0 **** 0.0
18991 C 21.895 97.5827 34.2313 C 0.0 **** 0.0
18992 C 22.3502 96.3172 34.5816 C 0.0 **** 0.0
18993 C 22.6037 95.9999 35.9486 C 0.0 **** 0.0
18994 C 22.8287 97.0464 36.8694 C 0.0 **** 0.0
18995 C 23.2947 96.7418 38.2017 C 0.0 **** 0.0
18996 C 23.4501 95.3864 38.5868 C 0.0 **** 0.0
18997 C 23.523 94.4411 37.535 C 0.0 **** 0.0
18998 C 22.8278 94.6805 36.334 C 0.0 **** 0.0
18999 C 24.1111 93.0322 37.7423 C 0.0 **** 0.0
19000 C 25.0583 93.0848 38.9776 C 0.0 **** 0.0
19001 C 24.3982 93.7615 40.1427 C 0.0 **** 0.0
19002 C 23.6798 94.9794 39.9412 C 0.0 **** 0.0
19003 C 26.5033 93.5858 38.7445 C 0.0 **** 0.0
19004 C 26.8889 93.5921 37.2582 C 0.0 **** 0.0
19005 C 26.3761 92.3811 36.5964 C 0.0 **** 0.0
19006 C 24.8622 92.4701 36.4691 C 0.0 **** 0.0
19007 C 23.1342 95.7134 41.0677 C 0.0 **** 0.0
19008 C 23.1646 95.1255 42.3644 C 0.0 **** 0.0
19009 C 23.7864 93.8943 42.5225 C 0.0 **** 0.0
19010 C 24.5691 93.3261 41.4748 C 0.0 **** 0.0
19011 C 23.5459 93.1286 43.782 C 0.0 **** 0.0
19012 C 23.2107 93.883 45.0137 C 0.0 **** 0.0
19013 C 22.6324 95.1422 44.8669 C 0.0 **** 0.0
19014 C 22.4046 95.664 43.5042 C 0.0 **** 0.0
19015 C 22.0723 95.9246 46.0423 C 0.0 **** 0.0
19016 C 22.7095 95.4741 47.4068 C 0.0 **** 0.0
19017 C 23.2764 94.0675 47.491 C 0.0 **** 0.0
19018 C 23.5392 93.3562 46.2642 C 0.0 **** 0.0
19019 N 23.9477 92.0558 46.3427 N 0.0 **** 0.0
19020 C 24.3153 91.4649 47.4942 C 0.0 **** 0.0
19021 C 24.1843 92.1935 48.704 C 0.0 **** 0.0
19022 C 23.6477 93.471 48.733 C 0.0 **** 0.0
19023 C 23.4289 94.2095 50.0527 C 0.0 **** 0.0
19024 C 23.7197 93.3759 51.3375 C 0.0 **** 0.0
19025 C 24.808 92.3975 51.1573 C 0.0 **** 0.0
19026 C 24.5332 91.4686 49.963 C 0.0 **** 0.0
19027 C 25.7488 90.5383 49.7597 C 0.0 **** 0.0
19028 C 25.6549 89.7123 48.5155 C 0.0 **** 0.0
19029 C 24.8957 90.1974 47.4488 C 0.0 **** 0.0
19030 C 24.7804 89.4026 46.2811 C 0.0 **** 0.0
19031 C 25.3712 88.1572 46.198 C 0.0 **** 0.0
19032 C 26.1662 87.6785 47.2235 C 0.0 **** 0.0
19033 C 26.4312 88.4898 48.3708 C 0.0 **** 0.0
19034 C 23.2302 104.655 37.9517 C 0.0 **** 0.0
19035 C 24.7244 105.026 37.7033 C 0.0 **** 0.0
19036 C 21.8958 105.034 35.3587 C 0.0 **** 0.0
19037 C 24.1217 101.834 38.6458 C 0.0 **** 0.0
19038 C 20.7876 102.68 33.9541 C 0.0 **** 0.0
19039 C 21.3124 97.8582 32.8595 C 0.0 **** 0.0
19040 C 22.8153 95.3542 33.4782 C 0.0 **** 0.0
19041 O 22.2295 93.6541 35.6059 O 0.0 **** 0.0
19042 C 26.8708 91.0926 37.2868 C 0.0 **** 0.0
19043 C 28.3687 93.8368 37.0479 C 0.0 **** 0.0
19044 O 25.365 92.1783 41.7743 O 0.0 **** 0.0
19045 O 22.3355 96.858 40.7981 O 0.0 **** 0.0
19046 O 21.5134 96.4736 43.3414 O 0.0 **** 0.0
19047 O 23.4354 91.9092 43.7548 O 0.0 **** 0.0
19048 C 27.537 88.0784 49.3341 C 0.0 **** 0.0
19049 C 26.8617 86.327 47.0783 C 0.0 **** 0.0
19050 H 23.9551 99.4392 37.5623 H 0.0 **** 0.0
19051 H 22.3619 99.4793 38.3508 H 0.0 **** 0.0
19052 H 20.3718 99.922 34.8644 H 0.0 **** 0.0
19053 H 21.751 100.199 33.8025 H 0.0 **** 0.0
19054 H 23.5233 97.5145 38.9056 H 0.0 **** 0.0
19055 H 26.7031 94.5824 39.2276 H 0.0 **** 0.0
19056 H 27.2668 92.9099 39.27 H 0.0 **** 0.0
19057 H 26.4342 94.4609 36.7039 H 0.0 **** 0.0
19058 H 26.7197 92.3778 35.5355 H 0.0 **** 0.0
19059 H 24.4358 91.453 36.3012 H 0.0 **** 0.0
19060 H 24.6159 93.0667 35.5432 H 0.0 **** 0.0
19061 H 22.304 97.009 45.9575 H 0.0 **** 0.0
19062 H 20.9879 95.7767 46.1555 H 0.0 **** 0.0
19063 H 21.9934 95.7229 48.2496 H 0.0 **** 0.0
19064 H 23.6453 96.1377 47.5711 H 0.0 **** 0.0
19065 H 24.0855 95.0916 50.2126 H 0.0 **** 0.0
19066 H 22.3822 94.5164 50.1841 H 0.0 **** 0.0
19067 H 22.773 92.8518 51.5711 H 0.0 **** 0.0
19068 H 24.0564 94.0554 52.1336 H 0.0 **** 0.0
19069 H 24.9255 91.7864 52.053 H 0.0 **** 0.0
19070 H 25.8075 92.8667 51.0153 H 0.0 **** 0.0
19071 H 23.6468 90.8484 50.1488 H 0.0 **** 0.0
19072 H 26.7029 91.0942 49.7034 H 0.0 **** 0.0
19073 H 25.7719 89.8813 50.6506 H 0.0 **** 0.0
19074 H 24.0362 89.6792 45.5438 H 0.0 **** 0.0
19075 H 25.1647 87.4902 45.336 H 0.0 **** 0.0
19076 H 23.1046 104.355 39.0062 H 0.0 **** 0.0
19077 H 22.542 105.509 37.8148 H 0.0 **** 0.0
19078 H 25.0113 105.066 36.6217 H 0.0 **** 0.0
19079 H 25.4064 104.35 38.1838 H 0.0 **** 0.0
19080 H 24.9036 106.052 38.1411 H 0.0 **** 0.0
19081 H 21.592 105.118 34.2511 H 0.0 **** 0.0
19082 H 22.8493 105.595 35.4569 H 0.0 **** 0.0
19083 H 21.0984 105.58 35.9088 H 0.0 **** 0.0
19084 H 25.079 101.707 38.1171 H 0.0 **** 0.0
19085 H 23.898 100.985 39.2552 H 0.0 **** 0.0
19086 H 24.2502 102.669 39.3234 H 0.0 **** 0.0
19087 H 20.1511 101.871 33.5914 H 0.0 **** 0.0
19088 H 21.5745 102.956 33.2511 H 0.0 **** 0.0
19089 H 20.0756 103.495 34.1027 H 0.0 **** 0.0
19090 H 22.0588 98.4229 32.2822 H 0.0 **** 0.0
19091 H 20.3828 98.4549 33.0428 H 0.0 **** 0.0
19092 H 21.0323 96.9346 32.3261 H 0.0 **** 0.0
19093 H 23.6396 94.7168 33.8314 H 0.0 **** 0.0
19094 H 23.1295 95.8983 32.53 H 0.0 **** 0.0
19095 H 21.9972 94.6842 33.1751 H 0.0 **** 0.0
19096 H 22.2677 92.7352 36.0362 H 0.0 **** 0.0
19097 H 27.9429 91.0463 37.3938 H 0.0 **** 0.0
19098 H 26.6184 90.2256 36.6043 H 0.0 **** 0.0
19099 H 26.4043 90.9322 38.3046 H 0.0 **** 0.0
19100 H 28.6314 94.8021 37.4766 H 0.0 **** 0.0
19101 H 28.6001 93.8724 35.9747 H 0.0 **** 0.0
19102 H 29.0638 93.0671 37.4563 H 0.0 **** 0.0
19103 H 25.8881 91.8044 40.9927 H 0.0 **** 0.0
19104 H 22.4233 97.5878 41.4751 H 0.0 **** 0.0
19105 H 28.4886 87.9669 48.7948 H 0.0 **** 0.0
19106 H 27.2245 87.1572 49.8764 H 0.0 **** 0.0
19107 H 27.7297 88.8513 50.1141 H 0.0 **** 0.0
19108 H 26.6558 85.7262 46.1702 H 0.0 **** 0.0
19109 H 26.4938 85.7127 47.9135 H 0.0 **** 0.0
19110 H 27.9693 86.379 47.2017 H 0.0 **** 0.0
19111 C 96.4003 77.8281 81.1551 C 0.0 **** 0.0
19112 C 95.4834 76.7556 81.145 C 0.0 **** 0.0
19113 C 95.8803 75.4343 80.7501 C 0.0 **** 0.0
19114 C 97.1497 75.222 80.2564 C 0.0 **** 0.0
19115 C 98.0547 76.3378 80.0553 C 0.0 **** 0.0
19116 C 97.7625 77.6325 80.6488 C 0.0 **** 0.0
19117 C 97.7719 73.8337 80.0567 C 0.0 **** 0.0
19118 C 96.842 72.65 80.3316 C 0.0 **** 0.0
19119 C 95.5064 72.8575 80.7332 C 0.0 **** 0.0
19120 C 94.9136 74.2687 80.9286 C 0.0 **** 0.0
19121 C 94.6085 71.7292 80.8295 C 0.0 **** 0.0
19122 C 95.0904 70.3929 80.6486 C 0.0 **** 0.0
19123 C 96.5033 70.2147 80.37 C 0.0 **** 0.0
19124 C 97.3038 71.3358 80.0493 C 0.0 **** 0.0
19125 C 98.6298 71.1241 79.627 C 0.0 **** 0.0
19126 C 99.1477 69.8201 79.4748 C 0.0 **** 0.0
19127 C 98.3233 68.7042 79.6777 C 0.0 **** 0.0
19128 C 97.0527 68.9308 80.3002 C 0.0 **** 0.0
19129 C 98.8375 67.2846 79.3664 C 0.0 **** 0.0
19130 C 99.9987 67.2286 78.3776 C 0.0 **** 0.0
19131 C 100.983 68.3725 78.5828 C 0.0 **** 0.0
19132 C 100.515 69.6201 79.093 C 0.0 **** 0.0
19133 C 99.5733 66.8794 76.8876 C 0.0 **** 0.0
19134 C 98.127 67.2368 76.57 C 0.0 **** 0.0
19135 C 97.1345 66.5743 77.4639 C 0.0 **** 0.0
19136 C 97.7378 66.2675 78.8483 C 0.0 **** 0.0
19137 C 101.491 70.6023 79.2946 C 0.0 **** 0.0
19138 C 102.769 70.5164 78.7404 C 0.0 **** 0.0
19139 C 103.201 69.3148 78.2184 C 0.0 **** 0.0
19140 C 102.357 68.2074 78.2363 C 0.0 **** 0.0
19141 C 104.463 69.2912 77.475 C 0.0 **** 0.0
19142 C 105.444 70.4151 77.6798 C 0.0 **** 0.0
19143 C 104.986 71.6414 78.0997 C 0.0 **** 0.0
19144 C 103.58 71.7555 78.5133 C 0.0 **** 0.0
19145 C 105.848 72.8588 78.1203 C 0.0 **** 0.0
19146 C 107.188 72.6681 77.362 C 0.0 **** 0.0
19147 C 107.77 71.223 77.4709 C 0.0 **** 0.0
19148 C 106.809 70.169 77.5008 C 0.0 **** 0.0
19149 N 107.251 68.8995 77.5063 N 0.0 **** 0.0
19150 C 108.53 68.4938 77.4088 C 0.0 **** 0.0
19151 C 109.5 69.539 77.252 C 0.0 **** 0.0
19152 C 109.108 70.9016 77.2028 C 0.0 **** 0.0
19153 C 110.146 71.9495 76.7781 C 0.0 **** 0.0
19154 C 111.475 71.5858 77.4438 C 0.0 **** 0.0
19155 C 111.984 70.2247 76.947 C 0.0 **** 0.0
19156 C 110.951 69.1413 77.3804 C 0.0 **** 0.0
19157 C 111.254 67.7401 76.7887 C 0.0 **** 0.0
19158 C 110.222 66.7318 77.2403 C 0.0 **** 0.0
19159 C 108.877 67.1109 77.5027 C 0.0 **** 0.0
19160 C 107.881 66.1582 77.6741 C 0.0 **** 0.0
19161 C 108.208 64.7825 77.5959 C 0.0 **** 0.0
19162 C 109.525 64.3551 77.4018 C 0.0 **** 0.0
19163 C 110.572 65.3355 77.2746 C 0.0 **** 0.0
19164 C 98.8833 78.6798 80.7706 C 0.0 **** 0.0
19165 C 98.7474 79.7786 79.7524 C 0.0 **** 0.0
19166 C 96.0191 79.1096 81.7583 C 0.0 **** 0.0
19167 C 99.2839 76.1639 79.2188 C 0.0 **** 0.0
19168 C 94.0843 76.8994 81.7398 C 0.0 **** 0.0
19169 C 93.1214 71.9355 81.1833 C 0.0 **** 0.0
19170 C 94.0613 69.2461 80.6906 C 0.0 **** 0.0
19171 O 96.5266 67.9054 81.0843 O 0.0 **** 0.0
19172 C 96.4491 65.3058 76.9321 C 0.0 **** 0.0
19173 C 97.8474 67.1449 75.0726 C 0.0 **** 0.0
19174 O 102.852 66.9221 77.9483 O 0.0 **** 0.0
19175 O 101.251 71.6162 80.2256 O 0.0 **** 0.0
19176 O 103.068 72.869 78.6197 O 0.0 **** 0.0
19177 O 104.726 68.404 76.6675 O 0.0 **** 0.0
19178 C 112.035 64.9341 77.1822 C 0.0 **** 0.0
19179 C 109.8 62.8618 77.3981 C 0.0 **** 0.0
19180 H 98.0475 73.7481 79.0351 H 0.0 **** 0.0
19181 H 98.6785 73.6564 80.6665 H 0.0 **** 0.0
19182 H 94.6456 74.2762 82.0245 H 0.0 **** 0.0
19183 H 94.0143 74.4485 80.2249 H 0.0 **** 0.0
19184 H 99.2497 71.9489 79.3237 H 0.0 **** 0.0
19185 H 100.248 67.27 76.1279 H 0.0 **** 0.0
19186 H 99.5971 65.7902 76.7077 H 0.0 **** 0.0
19187 H 98.0372 68.3587 76.7386 H 0.0 **** 0.0
19188 H 96.3069 67.2994 77.6403 H 0.0 **** 0.0
19189 H 98.2731 65.3052 78.7926 H 0.0 **** 0.0
19190 H 96.9156 66.1164 79.5592 H 0.0 **** 0.0
19191 H 105.317 73.6636 77.6329 H 0.0 **** 0.0
19192 H 106.028 73.1512 79.1621 H 0.0 **** 0.0
19193 H 107.915 73.3562 77.8598 H 0.0 **** 0.0
19194 H 107.026 73.0006 76.313 H 0.0 **** 0.0
19195 H 110.283 71.8481 75.6784 H 0.0 **** 0.0
19196 H 109.941 73.0138 76.9904 H 0.0 **** 0.0
19197 H 111.3 71.5975 78.5308 H 0.0 **** 0.0
19198 H 112.256 72.339 77.2492 H 0.0 **** 0.0
19199 H 112.977 69.9819 77.3501 H 0.0 **** 0.0
19200 H 112.082 70.2134 75.8792 H 0.0 **** 0.0
19201 H 111.17 68.9986 78.4508 H 0.0 **** 0.0
19202 H 111.388 67.7243 75.7134 H 0.0 **** 0.0
19203 H 112.222 67.4706 77.2333 H 0.0 **** 0.0
19204 H 106.883 66.3763 77.9063 H 0.0 **** 0.0
19205 H 107.426 64.0652 77.7171 H 0.0 **** 0.0
19206 H 99.931 78.2743 80.6789 H 0.0 **** 0.0
19207 H 98.875 79.1513 81.8194 H 0.0 **** 0.0
19208 H 99.6341 80.4397 79.8487 H 0.0 **** 0.0
19209 H 97.7538 80.3425 79.89 H 0.0 **** 0.0
19210 H 98.6857 79.2592 78.7781 H 0.0 **** 0.0
19211 H 95.7166 78.9158 82.8425 H 0.0 **** 0.0
19212 H 95.1573 79.445 81.1723 H 0.0 **** 0.0
19213 H 96.8161 79.9341 81.7266 H 0.0 **** 0.0
19214 H 99.0941 75.6141 78.3018 H 0.0 **** 0.0
19215 H 100.039 75.5559 79.7813 H 0.0 **** 0.0
19216 H 99.7415 77.0969 78.8737 H 0.0 **** 0.0
19217 H 93.3724 76.4181 81.0461 H 0.0 **** 0.0
19218 H 93.8074 77.9965 81.8205 H 0.0 **** 0.0
19219 H 94.0266 76.4352 82.6953 H 0.0 **** 0.0
19220 H 92.8545 71.3033 82.0584 H 0.0 **** 0.0
19221 H 92.4875 71.5932 80.3275 H 0.0 **** 0.0
19222 H 92.854 72.9922 81.3328 H 0.0 **** 0.0
19223 H 94.3825 68.3613 80.1232 H 0.0 **** 0.0
19224 H 93.0786 69.6272 80.2416 H 0.0 **** 0.0
19225 H 93.8438 68.8468 81.6774 H 0.0 **** 0.0
19226 H 97.2041 67.2244 81.4146 H 0.0 **** 0.0
19227 H 95.8768 65.5326 76.0499 H 0.0 **** 0.0
19228 H 95.8662 64.9092 77.7644 H 0.0 **** 0.0
19229 H 97.2463 64.5635 76.6234 H 0.0 **** 0.0
19230 H 98.5551 67.7842 74.5218 H 0.0 **** 0.0
19231 H 96.7814 67.5376 74.9215 H 0.0 **** 0.0
19232 H 97.8582 66.062 74.7561 H 0.0 **** 0.0
19233 H 103.829 66.82 78.1675 H 0.0 **** 0.0
19234 H 102.025 71.8485 80.8441 H 0.0 **** 0.0
19235 H 112.647 65.4864 77.955 H 0.0 **** 0.0
19236 H 112.427 65.2033 76.1676 H 0.0 **** 0.0
19237 H 112.193 63.8513 77.4395 H 0.0 **** 0.0
19238 H 110.255 62.5207 76.452 H 0.0 **** 0.0
19239 H 108.812 62.3181 77.4957 H 0.0 **** 0.0
19240 H 110.449 62.5293 78.274 H 0.0 **** 0.0
19241 C 96.4593 101.397 42.8851 C 0.0 **** 0.0
19242 C 96.811 100.508 43.9453 C 0.0 **** 0.0
19243 C 96.179 99.2246 44.06 C 0.0 **** 0.0
19244 C 95.2731 98.8413 43.1051 C 0.0 **** 0.0
19245 C 95.1053 99.5977 41.9056 C 0.0 **** 0.0
19246 C 95.7218 100.854 41.7923 C 0.0 **** 0.0
19247 C 94.4056 97.6001 43.2446 C 0.0 **** 0.0
19248 C 94.4979 96.8214 44.547 C 0.0 **** 0.0
19249 C 95.4278 97.1997 45.5159 C 0.0 **** 0.0
19250 C 96.3951 98.3332 45.2723 C 0.0 **** 0.0
19251 C 95.4147 96.5225 46.787 C 0.0 **** 0.0
19252 C 94.352 95.596 47.0499 C 0.0 **** 0.0
19253 C 93.5278 95.1479 46.0273 C 0.0 **** 0.0
19254 C 93.6073 95.738 44.7458 C 0.0 **** 0.0
19255 C 92.7197 95.2806 43.7448 C 0.0 **** 0.0
19256 C 91.7195 94.3031 43.9827 C 0.0 **** 0.0
19257 C 91.5592 93.8782 45.3243 C 0.0 **** 0.0
19258 C 92.5439 94.1519 46.2478 C 0.0 **** 0.0
19259 C 90.2598 93.1396 45.744 C 0.0 **** 0.0
19260 C 89.1531 93.4044 44.6927 C 0.0 **** 0.0
19261 C 89.6491 93.2652 43.2656 C 0.0 **** 0.0
19262 C 90.8876 93.7652 42.9323 C 0.0 **** 0.0
19263 C 88.3237 94.6666 44.9344 C 0.0 **** 0.0
19264 C 89.0425 95.6724 45.8395 C 0.0 **** 0.0
19265 C 89.3738 95.1051 47.1477 C 0.0 **** 0.0
19266 C 89.7415 93.5648 47.0942 C 0.0 **** 0.0
19267 C 91.3574 93.5566 41.5683 C 0.0 **** 0.0
19268 C 90.6224 92.756 40.6375 C 0.0 **** 0.0
19269 C 89.3359 92.3155 40.9974 C 0.0 **** 0.0
19270 C 88.8421 92.6448 42.2971 C 0.0 **** 0.0
19271 C 88.5484 91.5305 40.0296 C 0.0 **** 0.0
19272 C 88.9538 91.3392 38.597 C 0.0 **** 0.0
19273 C 90.2836 91.7081 38.2362 C 0.0 **** 0.0
19274 C 91.1439 92.3647 39.2619 C 0.0 **** 0.0
19275 C 90.8712 91.0554 37.0039 C 0.0 **** 0.0
19276 C 89.8452 91.018 35.8823 C 0.0 **** 0.0
19277 C 88.3837 90.6353 36.2799 C 0.0 **** 0.0
19278 C 87.9813 90.9069 37.6116 C 0.0 **** 0.0
19279 N 86.6514 90.7921 37.946 N 0.0 **** 0.0
19280 C 85.6674 90.5573 36.9978 C 0.0 **** 0.0
19281 C 86.0518 90.3025 35.6741 C 0.0 **** 0.0
19282 C 87.4251 90.259 35.3199 C 0.0 **** 0.0
19283 C 87.847 89.8684 33.9077 C 0.0 **** 0.0
19284 C 86.7398 89.3657 32.9873 C 0.0 **** 0.0
19285 C 85.4889 90.2073 33.2412 C 0.0 **** 0.0
19286 C 85.0012 89.971 34.6376 C 0.0 **** 0.0
19287 C 83.7411 90.8305 34.9072 C 0.0 **** 0.0
19288 C 83.2883 90.8153 36.3311 C 0.0 **** 0.0
19289 C 84.2689 90.693 37.3598 C 0.0 **** 0.0
19290 C 83.8629 90.9171 38.6811 C 0.0 **** 0.0
19291 C 82.501 91.1541 38.9941 C 0.0 **** 0.0
19292 C 81.5057 91.2154 37.9964 C 0.0 **** 0.0
19293 C 81.9222 91.1618 36.6388 C 0.0 **** 0.0
19294 C 95.599 101.677 40.5225 C 0.0 **** 0.0
19295 C 94.309 102.498 40.4485 C 0.0 **** 0.0
19296 C 97.0035 102.79 42.9014 C 0.0 **** 0.0
19297 C 94.2473 99.0086 40.7732 C 0.0 **** 0.0
19298 C 97.9299 100.838 44.915 C 0.0 **** 0.0
19299 C 96.4924 96.7846 47.8555 C 0.0 **** 0.0
19300 C 93.8219 95.5637 48.4968 C 0.0 **** 0.0
19301 O 92.5782 93.2673 47.3698 O 0.0 **** 0.0
19302 C 88.3293 95.3668 48.2563 C 0.0 **** 0.0
19303 C 88.3176 97.0109 45.8164 C 0.0 **** 0.0
19304 O 87.4983 92.332 42.5479 O 0.0 **** 0.0
19305 O 92.6356 94.064 41.2261 O 0.0 **** 0.0
19306 O 92.3367 92.487 39.0242 O 0.0 **** 0.0
19307 O 87.6135 90.8672 40.4434 O 0.0 **** 0.0
19308 C 80.9986 91.5171 35.5042 C 0.0 **** 0.0
19309 C 80.067 91.2651 38.416 C 0.0 **** 0.0
19310 H 93.3532 97.9606 43.1868 H 0.0 **** 0.0
19311 H 94.6711 96.8926 42.4523 H 0.0 **** 0.0
19312 H 97.4218 97.9352 45.3892 H 0.0 **** 0.0
19313 H 96.1381 99.028 46.1417 H 0.0 **** 0.0
19314 H 92.6738 95.7584 42.7628 H 0.0 **** 0.0
19315 H 88.0972 95.201 43.9961 H 0.0 **** 0.0
19316 H 87.352 94.3867 45.3444 H 0.0 **** 0.0
19317 H 89.9967 95.9013 45.2929 H 0.0 **** 0.0
19318 H 90.3118 95.5967 47.4529 H 0.0 **** 0.0
19319 H 88.8392 92.9505 47.3178 H 0.0 **** 0.0
19320 H 90.4142 93.2637 47.9269 H 0.0 **** 0.0
19321 H 91.8401 91.5282 36.728 H 0.0 **** 0.0
19322 H 91.1492 89.9888 37.2752 H 0.0 **** 0.0
19323 H 90.1899 90.2887 35.1775 H 0.0 **** 0.0
19324 H 89.8348 91.9921 35.4125 H 0.0 **** 0.0
19325 H 88.285 90.7791 33.4341 H 0.0 **** 0.0
19326 H 88.603 89.0559 33.9761 H 0.0 **** 0.0
19327 H 86.4849 88.2786 33.1897 H 0.0 **** 0.0
19328 H 87.1184 89.4143 31.9552 H 0.0 **** 0.0
19329 H 84.6858 89.8255 32.5431 H 0.0 **** 0.0
19330 H 85.7275 91.2729 33.0338 H 0.0 **** 0.0
19331 H 84.727 88.8832 34.8574 H 0.0 **** 0.0
19332 H 83.9288 91.8676 34.7162 H 0.0 **** 0.0
19333 H 82.9288 90.4553 34.2564 H 0.0 **** 0.0
19334 H 84.5385 90.8725 39.5235 H 0.0 **** 0.0
19335 H 82.1858 91.1689 40.0526 H 0.0 **** 0.0
19336 H 95.7544 101.05 39.6519 H 0.0 **** 0.0
19337 H 96.4608 102.385 40.4525 H 0.0 **** 0.0
19338 H 94.3496 103.105 39.5302 H 0.0 **** 0.0
19339 H 94.3652 103.272 41.264 H 0.0 **** 0.0
19340 H 93.3948 101.891 40.5524 H 0.0 **** 0.0
19341 H 96.8144 103.232 43.8927 H 0.0 **** 0.0
19342 H 96.5206 103.499 42.1665 H 0.0 **** 0.0
19343 H 98.0733 102.82 42.5499 H 0.0 **** 0.0
19344 H 93.2258 98.7971 41.1237 H 0.0 **** 0.0
19345 H 94.6805 98.0475 40.38 H 0.0 **** 0.0
19346 H 94.1458 99.6643 39.864 H 0.0 **** 0.0
19347 H 98.4192 101.846 44.7177 H 0.0 **** 0.0
19348 H 98.752 100.141 44.6743 H 0.0 **** 0.0
19349 H 97.5197 100.774 45.9796 H 0.0 **** 0.0
19350 H 96.2361 97.7271 48.419 H 0.0 **** 0.0
19351 H 97.4938 97.0289 47.4566 H 0.0 **** 0.0
19352 H 96.677 95.9235 48.5124 H 0.0 **** 0.0
19353 H 92.7948 95.3802 48.5599 H 0.0 **** 0.0
19354 H 93.907 96.5912 48.9861 H 0.0 **** 0.0
19355 H 94.3659 94.7967 49.1373 H 0.0 **** 0.0
19356 H 93.5221 93.1185 47.7434 H 0.0 **** 0.0
19357 H 88.1844 96.427 48.5663 H 0.0 **** 0.0
19358 H 88.5998 94.8788 49.1502 H 0.0 **** 0.0
19359 H 87.3636 94.9342 48.0333 H 0.0 **** 0.0
19360 H 88.2067 97.3444 44.7828 H 0.0 **** 0.0
19361 H 88.9296 97.691 46.4014 H 0.0 **** 0.0
19362 H 87.2743 96.9325 46.2217 H 0.0 **** 0.0
19363 H 87.2451 92.4783 43.4852 H 0.0 **** 0.0
19364 H 92.7554 94.4465 40.2876 H 0.0 **** 0.0
19365 H 81.366 92.3437 34.8537 H 0.0 **** 0.0
19366 H 80.0362 91.8764 35.8789 H 0.0 **** 0.0
19367 H 80.7471 90.601 34.9544 H 0.0 **** 0.0
19368 H 79.5843 92.1754 38.0093 H 0.0 **** 0.0
19369 H 79.9708 91.2241 39.4897 H 0.0 **** 0.0
19370 H 79.5788 90.3337 38.0183 H 0.0 **** 0.0
19371 C 39.6492 50.9176 39.2306 C 0.0 **** 0.0
19372 C 38.676 50.6438 40.2247 C 0.0 **** 0.0
19373 C 38.7953 51.2844 41.4757 C 0.0 **** 0.0
19374 C 39.7604 52.2892 41.6838 C 0.0 **** 0.0
19375 C 40.6657 52.645 40.6144 C 0.0 **** 0.0
19376 C 40.5803 51.9929 39.3767 C 0.0 **** 0.0
19377 C 39.7521 53.0768 42.926 C 0.0 **** 0.0
19378 C 38.7912 52.6687 44.0674 C 0.0 **** 0.0
19379 C 37.9595 51.5768 43.8885 C 0.0 **** 0.0
19380 C 37.8616 50.8596 42.5644 C 0.0 **** 0.0
19381 C 37.0898 51.1817 44.9431 C 0.0 **** 0.0
19382 C 37.1952 51.8194 46.22 C 0.0 **** 0.0
19383 C 37.8262 53.0682 46.3384 C 0.0 **** 0.0
19384 C 38.7042 53.4583 45.2839 C 0.0 **** 0.0
19385 C 39.5161 54.6098 45.4536 C 0.0 **** 0.0
19386 C 39.3832 55.4246 46.5975 C 0.0 **** 0.0
19387 C 38.7184 54.9048 47.701 C 0.0 **** 0.0
19388 C 37.8177 53.8358 47.5564 C 0.0 **** 0.0
19389 C 39.081 55.4021 49.1441 C 0.0 **** 0.0
19390 C 40.2781 56.3563 49.1336 C 0.0 **** 0.0
19391 C 40.2696 57.2483 47.9468 C 0.0 **** 0.0
19392 C 39.9639 56.7274 46.6713 C 0.0 **** 0.0
19393 C 41.6591 55.6196 49.3056 C 0.0 **** 0.0
19394 C 41.6248 54.114 48.9475 C 0.0 **** 0.0
19395 C 40.6332 53.3769 49.7751 C 0.0 **** 0.0
19396 C 39.3476 54.2245 50.1254 C 0.0 **** 0.0
19397 C 40.1631 57.5546 45.5323 C 0.0 **** 0.0
19398 C 40.5408 58.9215 45.6918 C 0.0 **** 0.0
19399 C 40.8067 59.4284 46.983 C 0.0 **** 0.0
19400 C 40.7152 58.5898 48.0831 C 0.0 **** 0.0
19401 C 41.1155 60.8545 47.147 C 0.0 **** 0.0
19402 C 41.6942 61.5907 45.9678 C 0.0 **** 0.0
19403 C 41.2956 61.1832 44.7028 C 0.0 **** 0.0
19404 C 40.6409 59.8728 44.5079 C 0.0 **** 0.0
19405 C 41.6819 61.997 43.4542 C 0.0 **** 0.0
19406 C 42.7458 63.0396 43.7101 C 0.0 **** 0.0
19407 C 43.0176 63.4364 45.1295 C 0.0 **** 0.0
19408 C 42.5198 62.6946 46.2173 C 0.0 **** 0.0
19409 N 42.745 63.1042 47.505 N 0.0 **** 0.0
19410 C 43.4496 64.2508 47.813 C 0.0 **** 0.0
19411 C 43.9432 65.0385 46.7589 C 0.0 **** 0.0
19412 C 43.847 64.5687 45.41 C 0.0 **** 0.0
19413 C 44.5589 65.3192 44.3039 C 0.0 **** 0.0
19414 C 45.1071 66.7193 44.6341 C 0.0 **** 0.0
19415 C 45.6157 66.8068 46.0659 C 0.0 **** 0.0
19416 C 44.5004 66.4321 47.0477 C 0.0 **** 0.0
19417 C 45.0146 66.5825 48.4755 C 0.0 **** 0.0
19418 C 44.354 65.7448 49.5307 C 0.0 **** 0.0
19419 C 43.5793 64.6297 49.1394 C 0.0 **** 0.0
19420 C 42.8205 63.9461 50.1267 C 0.0 **** 0.0
19421 C 42.9684 64.3133 51.5099 C 0.0 **** 0.0
19422 C 43.8756 65.3095 51.8805 C 0.0 **** 0.0
19423 C 44.5663 66.0479 50.9036 C 0.0 **** 0.0
19424 C 41.565 52.3526 38.2655 C 0.0 **** 0.0
19425 C 42.7668 51.4184 38.3067 C 0.0 **** 0.0
19426 C 39.7004 50.0686 37.9722 C 0.0 **** 0.0
19427 C 41.6664 53.7742 40.8348 C 0.0 **** 0.0
19428 C 37.579 49.6098 40.0046 C 0.0 **** 0.0
19429 C 36.042 50.0844 44.7749 C 0.0 **** 0.0
19430 C 36.6372 51.1359 47.4752 C 0.0 **** 0.0
19431 O 36.7784 53.6843 48.4752 O 0.0 **** 0.0
19432 C 41.2277 52.6637 51.022 C 0.0 **** 0.0
19433 C 43.037 53.5435 49.0005 C 0.0 **** 0.0
19434 O 41.2411 58.9554 49.3375 O 0.0 **** 0.0
19435 O 39.8373 57.0449 44.2975 O 0.0 **** 0.0
19436 O 40.133 59.5882 43.4339 O 0.0 **** 0.0
19437 O 40.6711 61.4651 48.1101 O 0.0 **** 0.0
19438 C 45.3844 67.2507 51.3275 C 0.0 **** 0.0
19439 C 44.123 65.4685 53.3754 C 0.0 **** 0.0
19440 H 40.7573 52.9485 43.3652 H 0.0 **** 0.0
19441 H 39.5955 54.2045 42.7346 H 0.0 **** 0.0
19442 H 36.8499 51.1183 42.185 H 0.0 **** 0.0
19443 H 37.96 49.81 42.7703 H 0.0 **** 0.0
19444 H 40.2984 54.801 44.7567 H 0.0 **** 0.0
19445 H 42.4703 56.1398 48.7583 H 0.0 **** 0.0
19446 H 41.9657 55.7346 50.3575 H 0.0 **** 0.0
19447 H 41.308 53.9634 47.9068 H 0.0 **** 0.0
19448 H 40.2635 52.544 49.1081 H 0.0 **** 0.0
19449 H 39.4574 54.677 51.1231 H 0.0 **** 0.0
19450 H 38.4564 53.5691 50.2683 H 0.0 **** 0.0
19451 H 42.0282 61.3636 42.6503 H 0.0 **** 0.0
19452 H 40.7213 62.4592 43.0449 H 0.0 **** 0.0
19453 H 42.4127 63.9487 43.1443 H 0.0 **** 0.0
19454 H 43.7102 62.6895 43.3196 H 0.0 **** 0.0
19455 H 45.3453 64.6112 43.7955 H 0.0 **** 0.0
19456 H 43.8311 65.4904 43.4483 H 0.0 **** 0.0
19457 H 44.3363 67.4708 44.5106 H 0.0 **** 0.0
19458 H 45.9486 66.9659 43.9886 H 0.0 **** 0.0
19459 H 46.0889 67.8573 46.2552 H 0.0 **** 0.0
19460 H 46.466 66.0262 46.2099 H 0.0 **** 0.0
19461 H 43.6298 67.1686 46.9303 H 0.0 **** 0.0
19462 H 46.0924 66.3747 48.5332 H 0.0 **** 0.0
19463 H 44.8377 67.6254 48.7104 H 0.0 **** 0.0
19464 H 42.0571 63.205 49.9336 H 0.0 **** 0.0
19465 H 42.4925 63.6912 52.2769 H 0.0 **** 0.0
19466 H 41.887 53.3884 38.3334 H 0.0 **** 0.0
19467 H 41.0342 52.3415 37.2592 H 0.0 **** 0.0
19468 H 42.4006 50.3373 38.4431 H 0.0 **** 0.0
19469 H 43.4265 51.7447 39.1438 H 0.0 **** 0.0
19470 H 43.39 51.5775 37.4325 H 0.0 **** 0.0
19471 H 39.7577 49.0238 38.2761 H 0.0 **** 0.0
19472 H 40.5499 50.1977 37.2897 H 0.0 **** 0.0
19473 H 38.7896 50.2662 37.4172 H 0.0 **** 0.0
19474 H 41.6994 54.1887 41.8577 H 0.0 **** 0.0
19475 H 41.5126 54.5808 40.1062 H 0.0 **** 0.0
19476 H 42.6443 53.3496 40.6432 H 0.0 **** 0.0
19477 H 36.5715 50.1144 40.0806 H 0.0 **** 0.0
19478 H 37.6676 48.8052 40.7578 H 0.0 **** 0.0
19479 H 37.5921 49.1265 38.9932 H 0.0 **** 0.0
19480 H 35.0715 50.3519 45.2655 H 0.0 **** 0.0
19481 H 36.5168 49.1495 45.196 H 0.0 **** 0.0
19482 H 35.8069 49.9836 43.7213 H 0.0 **** 0.0
19483 H 37.3899 51.2353 48.2602 H 0.0 **** 0.0
19484 H 36.4362 50.0564 47.3239 H 0.0 **** 0.0
19485 H 35.7082 51.624 47.7961 H 0.0 **** 0.0
19486 H 36.6418 54.458 49.1487 H 0.0 **** 0.0
19487 H 41.7403 51.7521 50.7415 H 0.0 **** 0.0
19488 H 40.3846 52.2933 51.6972 H 0.0 **** 0.0
19489 H 41.9457 53.3674 51.5593 H 0.0 **** 0.0
19490 H 43.6391 53.9449 48.1711 H 0.0 **** 0.0
19491 H 42.9502 52.4283 48.8639 H 0.0 **** 0.0
19492 H 43.5758 53.723 49.9563 H 0.0 **** 0.0
19493 H 41.6455 59.8903 49.3911 H 0.0 **** 0.0
19494 H 40.5239 57.2647 43.5967 H 0.0 **** 0.0
19495 H 46.3673 67.2292 50.7997 H 0.0 **** 0.0
19496 H 45.6424 67.2548 52.3707 H 0.0 **** 0.0
19497 H 44.8236 68.1626 51.1519 H 0.0 **** 0.0
19498 H 45.2465 65.4072 53.5492 H 0.0 **** 0.0
19499 H 43.6067 64.6875 54.0116 H 0.0 **** 0.0
19500 H 43.7389 66.456 53.6621 H 0.0 **** 0.0
19501 C -8.03934 29.9637 39.9455 C 0.0 **** 0.0
19502 C -7.7406 28.5836 39.8545 C 0.0 **** 0.0
19503 C -6.49677 28.1135 40.2911 C 0.0 **** 0.0
19504 C -5.58341 28.9672 40.8704 C 0.0 **** 0.0
19505 C -5.86516 30.3566 41.0187 C 0.0 **** 0.0
19506 C -7.10964 30.8464 40.6066 C 0.0 **** 0.0
19507 C -4.25369 28.4367 41.3858 C 0.0 **** 0.0
19508 C -3.87662 26.994 41.1045 C 0.0 **** 0.0
19509 C -4.76885 26.1153 40.4678 C 0.0 **** 0.0
19510 C -6.17297 26.6348 40.1564 C 0.0 **** 0.0
19511 C -4.37114 24.7735 40.1406 C 0.0 **** 0.0
19512 C -3.02333 24.3911 40.3208 C 0.0 **** 0.0
19513 C -2.04679 25.3893 40.715 C 0.0 **** 0.0
19514 C -2.54306 26.5936 41.2826 C 0.0 **** 0.0
19515 C -1.68751 27.3477 42.0191 C 0.0 **** 0.0
19516 C -0.305868 27.2298 41.8793 C 0.0 **** 0.0
19517 C 0.189001 26.2523 40.9911 C 0.0 **** 0.0
19518 C -0.65064 25.2468 40.4934 C 0.0 **** 0.0
19519 C 1.65195 26.2282 40.7091 C 0.0 **** 0.0
19520 C 2.55053 26.6131 41.8667 C 0.0 **** 0.0
19521 C 1.87227 27.5094 42.917 C 0.0 **** 0.0
19522 C 0.53183 27.9562 42.7381 C 0.0 **** 0.0
19523 C 3.84398 27.2377 41.341 C 0.0 **** 0.0
19524 C 3.67458 28.4787 40.4152 C 0.0 **** 0.0
19525 C 2.50394 28.3007 39.4762 C 0.0 **** 0.0
19526 C 2.03465 26.8308 39.3466 C 0.0 **** 0.0
19527 C 0.124787 29.126 43.4242 C 0.0 **** 0.0
19528 C 0.792186 29.6237 44.5708 C 0.0 **** 0.0
19529 C 2.05724 29.0171 44.8471 C 0.0 **** 0.0
19530 C 2.53869 27.8695 44.1051 C 0.0 **** 0.0
19531 C 2.91503 29.5789 45.917 C 0.0 **** 0.0
19532 C 2.31364 30.4297 47.0018 C 0.0 **** 0.0
19533 C 1.0371 30.9461 46.7887 C 0.0 **** 0.0
19534 C 0.239291 30.5586 45.5657 C 0.0 **** 0.0
19535 C 0.383634 31.7211 47.9347 C 0.0 **** 0.0
19536 C 1.38089 32.4865 48.7889 C 0.0 **** 0.0
19537 C 2.56844 31.6257 49.1657 C 0.0 **** 0.0
19538 C 3.0235 30.6691 48.2159 C 0.0 **** 0.0
19539 N 4.10635 29.8987 48.5012 N 0.0 **** 0.0
19540 C 4.74728 29.9447 49.6984 C 0.0 **** 0.0
19541 C 4.31931 30.8562 50.6635 C 0.0 **** 0.0
19542 C 3.27158 31.762 50.4018 C 0.0 **** 0.0
19543 C 2.90894 32.8209 51.3877 C 0.0 **** 0.0
19544 C 3.28117 32.4781 52.8158 C 0.0 **** 0.0
19545 C 4.70631 31.9739 52.9115 C 0.0 **** 0.0
19546 C 4.83056 30.6839 52.0754 C 0.0 **** 0.0
19547 C 6.29839 30.1477 52.1138 C 0.0 **** 0.0
19548 C 6.41768 28.9025 51.2134 C 0.0 **** 0.0
19549 C 5.73049 28.9679 49.9731 C 0.0 **** 0.0
19550 C 6.00797 28.0058 48.9899 C 0.0 **** 0.0
19551 C 6.84926 26.9513 49.2569 C 0.0 **** 0.0
19552 C 7.44205 26.8228 50.5302 C 0.0 **** 0.0
19553 C 7.22238 27.7733 51.5292 C 0.0 **** 0.0
19554 C -7.54285 32.2792 41.0309 C 0.0 **** 0.0
19555 C -7.20448 33.2622 39.9218 C 0.0 **** 0.0
19556 C -9.38648 30.4626 39.4774 C 0.0 **** 0.0
19557 C -4.86819 31.2345 41.7082 C 0.0 **** 0.0
19558 C -8.80609 27.6235 39.239 C 0.0 **** 0.0
19559 C -5.30114 23.8482 39.3415 C 0.0 **** 0.0
19560 C -2.56593 22.9943 40.0835 C 0.0 **** 0.0
19561 O -0.12079 24.141 39.7723 O 0.0 **** 0.0
19562 C 2.70008 29.0441 38.1333 C 0.0 **** 0.0
19563 C 5.05449 28.8223 39.7906 C 0.0 **** 0.0
19564 O 3.70207 27.1918 44.5177 O 0.0 **** 0.0
19565 O -1.02624 29.7754 42.9905 O 0.0 **** 0.0
19566 O -0.834584 31.1215 45.4086 O 0.0 **** 0.0
19567 O 4.12429 29.42 45.8875 O 0.0 **** 0.0
19568 C 7.80177 27.6698 52.8969 C 0.0 **** 0.0
19569 C 8.21724 25.514 50.7597 C 0.0 **** 0.0
19570 H -3.49955 29.0061 40.8231 H 0.0 **** 0.0
19571 H -4.15873 28.6621 42.4256 H 0.0 **** 0.0
19572 H -6.83457 26.1327 40.8372 H 0.0 **** 0.0
19573 H -6.36009 26.3533 39.1299 H 0.0 **** 0.0
19574 H -2.15541 27.8791 42.8382 H 0.0 **** 0.0
19575 H 4.54643 27.3939 42.1932 H 0.0 **** 0.0
19576 H 4.35833 26.4844 40.7548 H 0.0 **** 0.0
19577 H 3.44818 29.3243 41.0965 H 0.0 **** 0.0
19578 H 1.66234 28.8487 39.9247 H 0.0 **** 0.0
19579 H 2.81466 26.2321 38.8787 H 0.0 **** 0.0
19580 H 1.11111 26.789 38.6637 H 0.0 **** 0.0
19581 H -0.277306 32.4735 47.5019 H 0.0 **** 0.0
19582 H -0.210202 31.0718 48.5985 H 0.0 **** 0.0
19583 H 0.816719 32.8646 49.632 H 0.0 **** 0.0
19584 H 1.698 33.314 48.1182 H 0.0 **** 0.0
19585 H 3.43372 33.7831 51.1402 H 0.0 **** 0.0
19586 H 1.77574 32.9275 51.3945 H 0.0 **** 0.0
19587 H 2.58853 31.7168 53.2765 H 0.0 **** 0.0
19588 H 3.18949 33.3694 53.4546 H 0.0 **** 0.0
19589 H 4.96148 31.731 53.962 H 0.0 **** 0.0
19590 H 5.46066 32.7197 52.5825 H 0.0 **** 0.0
19591 H 4.17225 29.9336 52.6134 H 0.0 **** 0.0
19592 H 7.11985 30.8648 51.9036 H 0.0 **** 0.0
19593 H 6.57759 29.8772 53.2264 H 0.0 **** 0.0
19594 H 5.59535 28.0541 48.0031 H 0.0 **** 0.0
19595 H 7.13841 26.2433 48.4572 H 0.0 **** 0.0
19596 H -7.02162 32.5647 41.9866 H 0.0 **** 0.0
19597 H -8.63986 32.3489 41.2338 H 0.0 **** 0.0
19598 H -7.70828 32.9856 38.9585 H 0.0 **** 0.0
19599 H -6.093 33.3246 39.6877 H 0.0 **** 0.0
19600 H -7.60581 34.2571 40.2368 H 0.0 **** 0.0
19601 H -9.77544 29.9184 38.5365 H 0.0 **** 0.0
19602 H -9.345 31.5299 39.102 H 0.0 **** 0.0
19603 H -10.1315 30.3706 40.2642 H 0.0 **** 0.0
19604 H -3.80365 30.8879 41.7675 H 0.0 **** 0.0
19605 H -5.13138 31.4881 42.7877 H 0.0 **** 0.0
19606 H -4.76339 32.1751 41.1724 H 0.0 **** 0.0
19607 H -8.65156 26.5353 39.5005 H 0.0 **** 0.0
19608 H -8.90087 27.6758 38.1147 H 0.0 **** 0.0
19609 H -9.80458 27.8627 39.6908 H 0.0 **** 0.0
19610 H -5.37102 22.8249 39.7359 H 0.0 **** 0.0
19611 H -4.89557 23.759 38.3211 H 0.0 **** 0.0
19612 H -6.34436 24.203 39.3371 H 0.0 **** 0.0
19613 H -2.43116 22.8028 38.9695 H 0.0 **** 0.0
19614 H -3.31471 22.2474 40.4074 H 0.0 **** 0.0
19615 H -1.67194 22.727 40.6242 H 0.0 **** 0.0
19616 H 0.867558 24.0317 39.8291 H 0.0 **** 0.0
19617 H 3.05023 30.1036 38.279 H 0.0 **** 0.0
19618 H 1.68334 29.2109 37.7358 H 0.0 **** 0.0
19619 H 3.35269 28.5371 37.3612 H 0.0 **** 0.0
19620 H 5.8092 29.135 40.5654 H 0.0 **** 0.0
19621 H 5.02432 29.8266 39.2402 H 0.0 **** 0.0
19622 H 5.41005 28.0098 39.1229 H 0.0 **** 0.0
19623 H 3.75751 26.2297 44.1038 H 0.0 **** 0.0
19624 H -0.976156 30.7855 43.1398 H 0.0 **** 0.0
19625 H 8.4407 28.5552 53.1238 H 0.0 **** 0.0
19626 H 8.47416 26.7986 53.0542 H 0.0 **** 0.0
19627 H 7.02037 27.5534 53.6385 H 0.0 **** 0.0
19628 H 9.25218 25.7512 51.0768 H 0.0 **** 0.0
19629 H 8.25246 24.9619 49.7389 H 0.0 **** 0.0
19630 H 7.75966 24.8773 51.5116 H 0.0 **** 0.0
19631 C 46.3343 22.8161 76.5561 C 0.0 **** 0.0
19632 C 46.6994 23.1275 75.215 C 0.0 **** 0.0
19633 C 46.1753 22.3148 74.1714 C 0.0 **** 0.0
19634 C 45.3223 21.2416 74.4569 C 0.0 **** 0.0
19635 C 44.847 21.0125 75.763 C 0.0 **** 0.0
19636 C 45.3824 21.7503 76.863 C 0.0 **** 0.0
19637 C 45.0176 20.2882 73.3261 C 0.0 **** 0.0
19638 C 46.3207 20.0781 72.5495 C 0.0 **** 0.0
19639 C 46.9904 21.2429 72.1269 C 0.0 **** 0.0
19640 C 46.572 22.5418 72.7252 C 0.0 **** 0.0
19641 C 48.1097 21.1024 71.2959 C 0.0 **** 0.0
19642 C 48.7418 19.841 71.1643 C 0.0 **** 0.0
19643 C 48.0916 18.636 71.5164 C 0.0 **** 0.0
19644 C 46.863 18.7937 72.1915 C 0.0 **** 0.0
19645 C 46.1564 17.63 72.5744 C 0.0 **** 0.0
19646 C 46.6978 16.3256 72.4825 C 0.0 **** 0.0
19647 C 47.9414 16.215 71.814 C 0.0 **** 0.0
19648 C 48.6067 17.3315 71.235 C 0.0 **** 0.0
19649 C 48.5371 14.8133 71.7278 C 0.0 **** 0.0
19650 C 47.4969 13.7074 71.5258 C 0.0 **** 0.0
19651 C 46.3218 13.888 72.4907 C 0.0 **** 0.0
19652 C 45.9812 15.1951 72.957 C 0.0 **** 0.0
19653 C 48.2097 12.3439 71.4774 C 0.0 **** 0.0
19654 C 49.1514 12.0803 72.6541 C 0.0 **** 0.0
19655 C 50.1846 13.1653 72.7481 C 0.0 **** 0.0
19656 C 49.4974 14.5156 72.8932 C 0.0 **** 0.0
19657 C 45.0074 15.2926 73.9679 C 0.0 **** 0.0
19658 C 44.173 14.1598 74.2961 C 0.0 **** 0.0
19659 C 44.5414 12.8976 73.8439 C 0.0 **** 0.0
19660 C 45.5104 12.7785 72.8168 C 0.0 **** 0.0
19661 C 43.9444 11.708 74.4423 C 0.0 **** 0.0
19662 C 42.6837 11.8869 75.2655 C 0.0 **** 0.0
19663 C 42.1026 13.2122 75.3884 C 0.0 **** 0.0
19664 C 42.8443 14.3396 74.866 C 0.0 **** 0.0
19665 C 40.6828 13.4086 75.8908 C 0.0 **** 0.0
19666 C 40.4116 12.4338 77.0101 C 0.0 **** 0.0
19667 C 40.7131 11.0034 76.5488 C 0.0 **** 0.0
19668 C 41.9005 10.7864 75.7824 C 0.0 **** 0.0
19669 N 42.2727 9.49209 75.6315 N 0.0 **** 0.0
19670 C 41.5991 8.41894 76.17 C 0.0 **** 0.0
19671 C 40.3809 8.63311 76.8339 C 0.0 **** 0.0
19672 C 39.8779 9.91703 76.9708 C 0.0 **** 0.0
19673 C 38.5818 10.1378 77.7468 C 0.0 **** 0.0
19674 C 37.7271 8.88164 77.9865 C 0.0 **** 0.0
19675 C 38.6138 7.73683 78.384 C 0.0 **** 0.0
19676 C 39.5473 7.45621 77.2536 C 0.0 **** 0.0
19677 C 40.437 6.30821 77.6719 C 0.0 **** 0.0
19678 C 41.5551 6.06322 76.7016 C 0.0 **** 0.0
19679 C 42.1223 7.14653 76.0274 C 0.0 **** 0.0
19680 C 43.1921 6.93297 75.0987 C 0.0 **** 0.0
19681 C 43.6169 5.61871 74.9072 C 0.0 **** 0.0
19682 C 43.0967 4.54043 75.624 C 0.0 **** 0.0
19683 C 42.0619 4.74761 76.5663 C 0.0 **** 0.0
19684 C 45.051 21.4023 78.285 C 0.0 **** 0.0
19685 C 45.9543 20.3182 78.8344 C 0.0 **** 0.0
19686 C 47.004 23.5193 77.7142 C 0.0 **** 0.0
19687 C 43.8912 19.849 75.9771 C 0.0 **** 0.0
19688 C 47.5525 24.3168 74.8545 C 0.0 **** 0.0
19689 C 48.6326 22.3546 70.6087 C 0.0 **** 0.0
19690 C 50.1468 19.8012 70.5852 C 0.0 **** 0.0
19691 O 49.6905 17.1522 70.3493 O 0.0 **** 0.0
19692 C 51.2475 13.2707 71.6141 C 0.0 **** 0.0
19693 C 49.7403 10.654 72.5873 C 0.0 **** 0.0
19694 O 45.4953 11.6976 71.9537 O 0.0 **** 0.0
19695 O 45.0035 16.4292 74.8001 O 0.0 **** 0.0
19696 O 42.2522 15.3967 74.7312 O 0.0 **** 0.0
19697 O 44.4058 10.5957 74.2956 O 0.0 **** 0.0
19698 C 41.3125 3.55085 77.1607 C 0.0 **** 0.0
19699 C 43.6232 3.17397 75.2281 C 0.0 **** 0.0
19700 H 44.588 19.3736 73.6688 H 0.0 **** 0.0
19701 H 44.222 20.7481 72.696 H 0.0 **** 0.0
19702 H 45.7081 22.9087 72.1092 H 0.0 **** 0.0
19703 H 47.3415 23.2848 72.6247 H 0.0 **** 0.0
19704 H 45.1196 17.6572 72.7795 H 0.0 **** 0.0
19705 H 47.5835 11.4737 71.273 H 0.0 **** 0.0
19706 H 48.8025 12.4016 70.5635 H 0.0 **** 0.0
19707 H 48.5374 12.1464 73.5351 H 0.0 **** 0.0
19708 H 50.6942 12.9534 73.6581 H 0.0 **** 0.0
19709 H 50.2226 15.3252 72.9469 H 0.0 **** 0.0
19710 H 48.9334 14.5794 73.8724 H 0.0 **** 0.0
19711 H 40.5106 14.4448 76.2824 H 0.0 **** 0.0
19712 H 39.9429 13.1975 75.0295 H 0.0 **** 0.0
19713 H 39.4037 12.5551 77.3937 H 0.0 **** 0.0
19714 H 41.1505 12.6888 77.7857 H 0.0 **** 0.0
19715 H 38.8319 10.6205 78.6954 H 0.0 **** 0.0
19716 H 37.937 10.8185 77.1134 H 0.0 **** 0.0
19717 H 37.1222 8.63152 77.0794 H 0.0 **** 0.0
19718 H 37.0008 9.06821 78.8086 H 0.0 **** 0.0
19719 H 37.9317 6.87479 78.5888 H 0.0 **** 0.0
19720 H 39.0992 7.9492 79.3523 H 0.0 **** 0.0
19721 H 38.9799 7.11317 76.3517 H 0.0 **** 0.0
19722 H 40.8485 6.49926 78.6929 H 0.0 **** 0.0
19723 H 39.7705 5.43234 77.7758 H 0.0 **** 0.0
19724 H 43.6336 7.72794 74.5372 H 0.0 **** 0.0
19725 H 44.3877 5.44945 74.1524 H 0.0 **** 0.0
19726 H 43.9607 21.1036 78.3483 H 0.0 **** 0.0
19727 H 45.0554 22.1907 79.0165 H 0.0 **** 0.0
19728 H 46.9557 20.5659 78.5121 H 0.0 **** 0.0
19729 H 45.5266 19.3513 78.4582 H 0.0 **** 0.0
19730 H 45.8915 20.2755 79.923 H 0.0 **** 0.0
19731 H 48.0505 23.1483 77.4989 H 0.0 **** 0.0
19732 H 46.9113 23.1145 78.7687 H 0.0 **** 0.0
19733 H 46.8015 24.6068 77.7527 H 0.0 **** 0.0
19734 H 43.4867 19.7813 76.9367 H 0.0 **** 0.0
19735 H 44.4334 18.8919 75.8187 H 0.0 **** 0.0
19736 H 43.0611 19.9516 75.2728 H 0.0 **** 0.0
19737 H 47.1844 24.986 74.0185 H 0.0 **** 0.0
19738 H 48.5355 23.9426 74.5386 H 0.0 **** 0.0
19739 H 47.746 25.0535 75.6779 H 0.0 **** 0.0
19740 H 49.1186 22.1466 69.6148 H 0.0 **** 0.0
19741 H 49.3264 22.924 71.2831 H 0.0 **** 0.0
19742 H 47.813 23.017 70.3181 H 0.0 **** 0.0
19743 H 50.8156 19.0887 71.1048 H 0.0 **** 0.0
19744 H 50.6703 20.744 70.7461 H 0.0 **** 0.0
19745 H 50.0725 19.5163 69.5041 H 0.0 **** 0.0
19746 H 49.7418 16.213 70.0116 H 0.0 **** 0.0
19747 H 51.9636 12.3935 71.6644 H 0.0 **** 0.0
19748 H 51.8997 14.1573 71.7889 H 0.0 **** 0.0
19749 H 50.8305 13.4506 70.6041 H 0.0 **** 0.0
19750 H 48.9984 9.84433 72.6233 H 0.0 **** 0.0
19751 H 50.4115 10.3854 73.4683 H 0.0 **** 0.0
19752 H 50.3524 10.5863 71.6711 H 0.0 **** 0.0
19753 H 44.7068 11.1149 71.9282 H 0.0 **** 0.0
19754 H 44.6812 16.1991 75.745 H 0.0 **** 0.0
19755 H 41.345 3.6892 78.2448 H 0.0 **** 0.0
19756 H 41.7474 2.53634 76.9488 H 0.0 **** 0.0
19757 H 40.2502 3.49711 76.8609 H 0.0 **** 0.0
19758 H 43.9805 2.54446 76.0688 H 0.0 **** 0.0
19759 H 44.4885 3.24789 74.5135 H 0.0 **** 0.0
19760 H 42.8228 2.60991 74.6923 H 0.0 **** 0.0
19761 C 24.0277 84.8626 59.7368 C 0.0 **** 0.0
19762 C 25.1623 84.6949 58.8514 C 0.0 **** 0.0
19763 C 25.4734 83.4155 58.2953 C 0.0 **** 0.0
19764 C 24.4799 82.4527 58.333 C 0.0 **** 0.0
19765 C 23.2776 82.6837 59.0381 C 0.0 **** 0.0
19766 C 23.0675 83.8218 59.8184 C 0.0 **** 0.0
19767 C 24.7575 81.0895 57.7257 C 0.0 **** 0.0
19768 C 26.1403 80.7469 57.2246 C 0.0 **** 0.0
19769 C 27.0829 81.7559 57.0122 C 0.0 **** 0.0
19770 C 26.7353 83.2002 57.4303 C 0.0 **** 0.0
19771 C 28.3929 81.4559 56.4621 C 0.0 **** 0.0
19772 C 28.7187 80.098 56.1633 C 0.0 **** 0.0
19773 C 27.8102 79.0342 56.5233 C 0.0 **** 0.0
19774 C 26.4821 79.4112 56.9204 C 0.0 **** 0.0
19775 C 25.5497 78.382 57.0853 C 0.0 **** 0.0
19776 C 25.9267 77.0441 57.1567 C 0.0 **** 0.0
19777 C 27.2811 76.7297 57.211 C 0.0 **** 0.0
19778 C 28.1685 77.679 56.6224 C 0.0 **** 0.0
19779 C 27.7988 75.3706 57.6586 C 0.0 **** 0.0
19780 C 26.7465 74.7598 58.6188 C 0.0 **** 0.0
19781 C 25.3877 74.8192 58.0295 C 0.0 **** 0.0
19782 C 24.948 75.9864 57.4059 C 0.0 **** 0.0
19783 C 26.809 75.3816 59.9954 C 0.0 **** 0.0
19784 C 28.2317 75.3895 60.6285 C 0.0 **** 0.0
19785 C 29.3031 74.8207 59.7973 C 0.0 **** 0.0
19786 C 29.2286 75.4735 58.3622 C 0.0 **** 0.0
19787 C 23.6024 76.0315 56.9595 C 0.0 **** 0.0
19788 C 22.6837 75.1346 57.4052 C 0.0 **** 0.0
19789 C 23.1495 73.8614 57.8601 C 0.0 **** 0.0
19790 C 24.558 73.7001 58.1382 C 0.0 **** 0.0
19791 C 22.1565 72.8176 58.0874 C 0.0 **** 0.0
19792 C 20.7079 73.1381 58.1222 C 0.0 **** 0.0
19793 C 20.2792 74.3741 57.5628 C 0.0 **** 0.0
19794 C 21.2704 75.4299 57.282 C 0.0 **** 0.0
19795 C 18.9024 74.4688 57.0206 C 0.0 **** 0.0
19796 C 17.9101 73.9263 57.9984 C 0.0 **** 0.0
19797 C 18.3353 72.5517 58.5799 C 0.0 **** 0.0
19798 C 19.7007 72.2362 58.617 C 0.0 **** 0.0
19799 N 20.071 71.0674 59.2604 N 0.0 **** 0.0
19800 C 19.1884 70.2725 59.9045 C 0.0 **** 0.0
19801 C 17.8455 70.5369 59.8508 C 0.0 **** 0.0
19802 C 17.405 71.7003 59.2058 C 0.0 **** 0.0
19803 C 15.947 72.0781 59.1994 C 0.0 **** 0.0
19804 C 14.9955 71.0048 59.7241 C 0.0 **** 0.0
19805 C 15.567 70.3074 60.9135 C 0.0 **** 0.0
19806 C 16.8944 69.6724 60.6272 C 0.0 **** 0.0
19807 C 17.5514 69.1647 61.9021 C 0.0 **** 0.0
19808 C 18.8801 68.5606 61.6371 C 0.0 **** 0.0
19809 C 19.6792 69.147 60.6756 C 0.0 **** 0.0
19810 C 21.0184 68.6614 60.4447 C 0.0 **** 0.0
19811 C 21.473 67.5929 61.1982 C 0.0 **** 0.0
19812 C 20.6729 66.9715 62.1572 C 0.0 **** 0.0
19813 C 19.3638 67.5015 62.4295 C 0.0 **** 0.0
19814 C 21.8619 83.8295 60.6859 C 0.0 **** 0.0
19815 C 22.0504 82.9956 61.9403 C 0.0 **** 0.0
19816 C 23.8786 86.2364 60.4532 C 0.0 **** 0.0
19817 C 22.2429 81.5473 58.9867 C 0.0 **** 0.0
19818 C 25.9039 85.9482 58.3898 C 0.0 **** 0.0
19819 C 29.4217 82.576 56.2567 C 0.0 **** 0.0
19820 C 30.1123 79.7458 55.6782 C 0.0 **** 0.0
19821 O 29.3938 77.2292 56.0117 O 0.0 **** 0.0
19822 C 29.3138 73.25 59.6343 C 0.0 **** 0.0
19823 C 28.2143 74.8085 62.043 C 0.0 **** 0.0
19824 O 25.1829 72.5173 58.5572 O 0.0 **** 0.0
19825 O 23.1907 76.8879 55.9518 O 0.0 **** 0.0
19826 O 20.8649 76.5467 56.9654 O 0.0 **** 0.0
19827 O 22.5465 71.6897 58.3147 O 0.0 **** 0.0
19828 C 18.5552 66.8938 63.6215 C 0.0 **** 0.0
19829 C 21.145 65.7666 62.8848 C 0.0 **** 0.0
19830 H 24.5635 80.4115 58.5563 H 0.0 **** 0.0
19831 H 24.0497 80.8785 56.899 H 0.0 **** 0.0
19832 H 26.7115 83.8422 56.5117 H 0.0 **** 0.0
19833 H 27.5872 83.5928 58.0733 H 0.0 **** 0.0
19834 H 24.4923 78.6311 57.1539 H 0.0 **** 0.0
19835 H 26.4354 76.4321 59.8682 H 0.0 **** 0.0
19836 H 26.0967 74.8404 60.6356 H 0.0 **** 0.0
19837 H 28.4709 76.4921 60.7507 H 0.0 **** 0.0
19838 H 30.2888 75.1257 60.2604 H 0.0 **** 0.0
19839 H 29.9203 74.9414 57.7266 H 0.0 **** 0.0
19840 H 29.6148 76.4809 58.4121 H 0.0 **** 0.0
19841 H 18.6639 75.5327 56.7727 H 0.0 **** 0.0
19842 H 18.7833 73.9765 56.008 H 0.0 **** 0.0
19843 H 16.9379 73.9507 57.5298 H 0.0 **** 0.0
19844 H 17.8762 74.6546 58.8491 H 0.0 **** 0.0
19845 H 15.8777 72.9858 59.8354 H 0.0 **** 0.0
19846 H 15.6597 72.3644 58.1334 H 0.0 **** 0.0
19847 H 14.7385 70.2653 58.9438 H 0.0 **** 0.0
19848 H 14.0053 71.4733 60.0034 H 0.0 **** 0.0
19849 H 14.872 69.4972 61.2481 H 0.0 **** 0.0
19850 H 15.6145 71.054 61.741 H 0.0 **** 0.0
19851 H 16.6763 68.8218 59.9711 H 0.0 **** 0.0
19852 H 17.7542 70.0308 62.5861 H 0.0 **** 0.0
19853 H 16.8309 68.4874 62.3469 H 0.0 **** 0.0
19854 H 21.6495 69.0476 59.6651 H 0.0 **** 0.0
19855 H 22.4169 67.1425 60.9279 H 0.0 **** 0.0
19856 H 20.9137 83.6657 60.1192 H 0.0 **** 0.0
19857 H 21.6245 84.8758 61.0251 H 0.0 **** 0.0
19858 H 22.8571 83.3859 62.5134 H 0.0 **** 0.0
19859 H 22.3247 81.9168 61.7456 H 0.0 **** 0.0
19860 H 21.0639 82.8736 62.532 H 0.0 **** 0.0
19861 H 23.116 86.2254 61.2833 H 0.0 **** 0.0
19862 H 23.5098 86.9482 59.7061 H 0.0 **** 0.0
19863 H 24.7616 86.6267 60.9425 H 0.0 **** 0.0
19864 H 22.5835 80.5713 59.3643 H 0.0 **** 0.0
19865 H 22.0538 81.2672 57.8935 H 0.0 **** 0.0
19866 H 21.2625 81.7193 59.4769 H 0.0 **** 0.0
19867 H 25.1944 86.7278 58.1018 H 0.0 **** 0.0
19868 H 26.5348 85.7959 57.51 H 0.0 **** 0.0
19869 H 26.5666 86.3565 59.1786 H 0.0 **** 0.0
19870 H 29.7428 82.596 55.1598 H 0.0 **** 0.0
19871 H 30.3752 82.4249 56.8712 H 0.0 **** 0.0
19872 H 29.0529 83.5985 56.4798 H 0.0 **** 0.0
19873 H 30.6811 79.2535 56.5708 H 0.0 **** 0.0
19874 H 30.6877 80.6186 55.3196 H 0.0 **** 0.0
19875 H 30.0624 79.0543 54.7833 H 0.0 **** 0.0
19876 H 29.3207 76.2659 55.7305 H 0.0 **** 0.0
19877 H 29.3747 72.7314 60.6286 H 0.0 **** 0.0
19878 H 30.1891 72.911 59.064 H 0.0 **** 0.0
19879 H 28.4372 72.791 59.1643 H 0.0 **** 0.0
19880 H 27.5772 75.4528 62.6266 H 0.0 **** 0.0
19881 H 29.195 74.8561 62.5384 H 0.0 **** 0.0
19882 H 27.8281 73.766 61.9621 H 0.0 **** 0.0
19883 H 24.7527 71.7234 58.1182 H 0.0 **** 0.0
19884 H 23.9064 77.1867 55.3063 H 0.0 **** 0.0
19885 H 18.2481 65.8507 63.4154 H 0.0 **** 0.0
19886 H 17.6172 67.4206 63.9293 H 0.0 **** 0.0
19887 H 19.1429 66.9673 64.5732 H 0.0 **** 0.0
19888 H 21.3535 66.0188 63.948 H 0.0 **** 0.0
19889 H 22.0748 65.3043 62.4398 H 0.0 **** 0.0
19890 H 20.323 65.0667 62.8337 H 0.0 **** 0.0
19891 C -2.82652 107.279 91.2286 C 0.0 **** 0.0
19892 C -3.63854 106.892 92.3146 C 0.0 **** 0.0
19893 C -3.54348 105.571 92.8585 C 0.0 **** 0.0
19894 C -2.55302 104.705 92.3287 C 0.0 **** 0.0
19895 C -1.57266 105.183 91.3863 C 0.0 **** 0.0
19896 C -1.72086 106.463 90.8237 C 0.0 **** 0.0
19897 C -2.45521 103.323 92.8527 C 0.0 **** 0.0
19898 C -3.45561 102.805 93.8412 C 0.0 **** 0.0
19899 C -4.37443 103.685 94.4172 C 0.0 **** 0.0
19900 C -4.4733 105.141 94.0014 C 0.0 **** 0.0
19901 C -5.22109 103.157 95.4235 C 0.0 **** 0.0
19902 C -5.24103 101.773 95.7623 C 0.0 **** 0.0
19903 C -4.22264 100.926 95.2351 C 0.0 **** 0.0
19904 C -3.3726 101.431 94.2658 C 0.0 **** 0.0
19905 C -2.29696 100.597 93.7846 C 0.0 **** 0.0
19906 C -2.13896 99.2727 94.2135 C 0.0 **** 0.0
19907 C -3.06 98.7472 95.1099 C 0.0 **** 0.0
19908 C -3.90502 99.6263 95.8003 C 0.0 **** 0.0
19909 C -3.11736 97.2035 95.2917 C 0.0 **** 0.0
19910 C -2.54096 96.5069 94.054 C 0.0 **** 0.0
19911 C -1.23149 97.037 93.7323 C 0.0 **** 0.0
19912 C -1.05435 98.4421 93.7026 C 0.0 **** 0.0
19913 C -3.46278 96.437 92.8085 C 0.0 **** 0.0
19914 C -4.86837 95.8909 93.1783 C 0.0 **** 0.0
19915 C -5.44905 96.6784 94.3046 C 0.0 **** 0.0
19916 C -4.52884 96.6286 95.5332 C 0.0 **** 0.0
19917 C 0.178063 98.9778 93.2381 C 0.0 **** 0.0
19918 C 1.1952 98.1071 92.7891 C 0.0 **** 0.0
19919 C 1.0347 96.6828 92.8855 C 0.0 **** 0.0
19920 C -0.175018 96.1363 93.3775 C 0.0 **** 0.0
19921 C 2.18849 95.8731 92.4859 C 0.0 **** 0.0
19922 C 3.56127 96.503 92.6445 C 0.0 **** 0.0
19923 C 3.67711 97.8874 92.4658 C 0.0 **** 0.0
19924 C 2.45159 98.6523 92.2732 C 0.0 **** 0.0
19925 C 4.96329 98.5915 92.489 C 0.0 **** 0.0
19926 C 6.06501 97.8625 93.2856 C 0.0 **** 0.0
19927 C 5.91625 96.3625 93.3737 C 0.0 **** 0.0
19928 C 4.67431 95.7319 93.0095 C 0.0 **** 0.0
19929 N 4.56768 94.3847 93.1223 N 0.0 **** 0.0
19930 C 5.54229 93.6268 93.6826 C 0.0 **** 0.0
19931 C 6.70261 94.2369 94.2347 C 0.0 **** 0.0
19932 C 6.92043 95.6098 94.0365 C 0.0 **** 0.0
19933 C 8.23895 96.2189 94.3966 C 0.0 **** 0.0
19934 C 8.76463 95.6492 95.6734 C 0.0 **** 0.0
19935 C 8.93364 94.1313 95.5068 C 0.0 **** 0.0
19936 C 7.62216 93.4205 95.0723 C 0.0 **** 0.0
19937 C 7.93357 92.1084 94.3543 C 0.0 **** 0.0
19938 C 6.62793 91.4408 93.9333 C 0.0 **** 0.0
19939 C 5.49791 92.2272 93.5682 C 0.0 **** 0.0
19940 C 4.34594 91.602 93.0676 C 0.0 **** 0.0
19941 C 4.18218 90.2381 93.126 C 0.0 **** 0.0
19942 C 5.24906 89.4052 93.5209 C 0.0 **** 0.0
19943 C 6.50237 90.008 93.7908 C 0.0 **** 0.0
19944 C -0.770956 106.964 89.779 C 0.0 **** 0.0
19945 C -1.14645 106.463 88.3558 C 0.0 **** 0.0
19946 C -3.1543 108.545 90.5108 C 0.0 **** 0.0
19947 C -0.370233 104.339 91.069 C 0.0 **** 0.0
19948 C -4.66108 107.849 92.851 C 0.0 **** 0.0
19949 C -6.00142 104.116 96.3009 C 0.0 **** 0.0
19950 C -6.37319 101.226 96.6497 C 0.0 **** 0.0
19951 O -4.30586 99.3783 97.1107 O 0.0 **** 0.0
19952 C -6.88496 96.2653 94.6625 C 0.0 **** 0.0
19953 C -4.76617 94.3735 93.3558 C 0.0 **** 0.0
19954 O -0.393496 94.7712 93.3703 O 0.0 **** 0.0
19955 O 0.445586 100.335 93.4882 O 0.0 **** 0.0
19956 O 2.52086 99.5624 91.4876 O 0.0 **** 0.0
19957 O 2.04248 94.7043 92.1196 O 0.0 **** 0.0
19958 C 7.77462 89.1509 93.8605 C 0.0 **** 0.0
19959 C 5.04036 87.8922 93.4309 C 0.0 **** 0.0
19960 H -2.50895 102.696 91.9773 H 0.0 **** 0.0
19961 H -1.43206 103.274 93.3512 H 0.0 **** 0.0
19962 H -4.24574 105.77 94.855 H 0.0 **** 0.0
19963 H -5.5266 105.333 93.6703 H 0.0 **** 0.0
19964 H -1.69029 100.948 93.0015 H 0.0 **** 0.0
19965 H -3.61042 97.4514 92.3798 H 0.0 **** 0.0
19966 H -3.05147 95.7906 92.004 H 0.0 **** 0.0
19967 H -5.51055 96.0748 92.295 H 0.0 **** 0.0
19968 H -5.58185 97.7453 93.9969 H 0.0 **** 0.0
19969 H -4.43307 95.6065 95.8748 H 0.0 **** 0.0
19970 H -5.00767 97.149 96.3422 H 0.0 **** 0.0
19971 H 5.30453 98.7664 91.4363 H 0.0 **** 0.0
19972 H 4.76212 99.5804 92.9259 H 0.0 **** 0.0
19973 H 6.177 98.269 94.3027 H 0.0 **** 0.0
19974 H 7.01825 98.0772 92.7199 H 0.0 **** 0.0
19975 H 8.97798 95.9904 93.6321 H 0.0 **** 0.0
19976 H 8.24426 97.3058 94.5308 H 0.0 **** 0.0
19977 H 8.07214 95.8488 96.5379 H 0.0 **** 0.0
19978 H 9.74393 96.0648 95.8272 H 0.0 **** 0.0
19979 H 9.26677 93.6327 96.4164 H 0.0 **** 0.0
19980 H 9.74874 93.9048 94.7506 H 0.0 **** 0.0
19981 H 7.04727 93.2016 95.9931 H 0.0 **** 0.0
19982 H 8.59788 92.3095 93.4581 H 0.0 **** 0.0
19983 H 8.53328 91.453 95.0438 H 0.0 **** 0.0
19984 H 3.54381 92.2001 92.6689 H 0.0 **** 0.0
19985 H 3.20171 89.8373 92.8096 H 0.0 **** 0.0
19986 H 0.231176 106.655 90.0758 H 0.0 **** 0.0
19987 H -0.618558 108.112 89.7873 H 0.0 **** 0.0
19988 H -2.22192 106.479 88.2685 H 0.0 **** 0.0
19989 H -0.751594 105.487 88.1504 H 0.0 **** 0.0
19990 H -0.770379 107.122 87.6266 H 0.0 **** 0.0
19991 H -4.26405 108.595 90.2696 H 0.0 **** 0.0
19992 H -2.77077 108.597 89.4991 H 0.0 **** 0.0
19993 H -2.88311 109.406 91.096 H 0.0 **** 0.0
19994 H -0.10133 104.316 90.013 H 0.0 **** 0.0
19995 H -0.431996 103.293 91.3154 H 0.0 **** 0.0
19996 H 0.53988 104.69 91.6694 H 0.0 **** 0.0
19997 H -5.01291 107.613 93.9265 H 0.0 **** 0.0
19998 H -5.56291 107.76 92.2313 H 0.0 **** 0.0
19999 H -4.26193 108.854 92.8343 H 0.0 **** 0.0
20000 H -5.72458 103.934 97.3661 H 0.0 **** 0.0
20001 H -7.08212 103.947 96.1875 H 0.0 **** 0.0
20002 H -5.80088 105.145 96.1206 H 0.0 **** 0.0
20003 H -6.51718 100.165 96.3881 H 0.0 **** 0.0
20004 H -7.33931 101.77 96.4418 H 0.0 **** 0.0
20005 H -6.06841 101.355 97.7488 H 0.0 **** 0.0
20006 H -3.67492 98.7655 97.601 H 0.0 **** 0.0
20007 H -7.49817 96.3695 93.7312 H 0.0 **** 0.0
20008 H -7.36052 96.9265 95.4276 H 0.0 **** 0.0
20009 H -6.92235 95.2094 95.0481 H 0.0 **** 0.0
20010 H -4.5713 93.8487 92.4115 H 0.0 **** 0.0
20011 H -5.74296 93.9908 93.6956 H 0.0 **** 0.0
20012 H -4.02201 94.0475 94.0968 H 0.0 **** 0.0
20013 H 0.382027 94.2168 93.7083 H 0.0 **** 0.0
20014 H 1.37122 100.669 93.2784 H 0.0 **** 0.0
20015 H 8.54712 89.538 93.2197 H 0.0 **** 0.0
20016 H 7.61448 88.1342 93.5238 H 0.0 **** 0.0
20017 H 8.1962 89.094 94.877 H 0.0 **** 0.0
20018 H 5.29222 87.4881 92.4186 H 0.0 **** 0.0
20019 H 3.97219 87.6232 93.6505 H 0.0 **** 0.0
20020 H 5.61977 87.3161 94.1694 H 0.0 **** 0.0
20021 C 50.5335 11.7908 51.7582 C 0.0 **** 0.0
20022 C 51.5943 12.3748 52.4865 C 0.0 **** 0.0
20023 C 52.6896 12.9568 51.7707 C 0.0 **** 0.0
20024 C 52.5566 13.2028 50.3863 C 0.0 **** 0.0
20025 C 51.3124 12.9586 49.763 C 0.0 **** 0.0
20026 C 50.3907 12.0355 50.3833 C 0.0 **** 0.0
20027 C 53.71 13.8003 49.5945 C 0.0 **** 0.0
20028 C 55.058 13.2795 50.1181 C 0.0 **** 0.0
20029 C 55.2117 13.0145 51.4982 C 0.0 **** 0.0
20030 C 53.9977 13.3737 52.4158 C 0.0 **** 0.0
20031 C 56.4479 12.5767 52.0146 C 0.0 **** 0.0
20032 C 57.4199 12.1847 51.1133 C 0.0 **** 0.0
20033 C 57.1914 12.209 49.7058 C 0.0 **** 0.0
20034 C 56.1001 12.9845 49.2517 C 0.0 **** 0.0
20035 C 56.0813 13.4145 47.9104 C 0.0 **** 0.0
20036 C 56.8752 12.7865 46.9353 C 0.0 **** 0.0
20037 C 57.8109 11.8009 47.3562 C 0.0 **** 0.0
20038 C 57.9974 11.5877 48.7515 C 0.0 **** 0.0
20039 C 58.3285 10.859 46.2883 C 0.0 **** 0.0
20040 C 58.8113 11.6512 45.0323 C 0.0 **** 0.0
20041 C 57.9613 12.9057 44.7285 C 0.0 **** 0.0
20042 C 56.9103 13.2605 45.5806 C 0.0 **** 0.0
20043 C 59.0062 10.684 43.8199 C 0.0 **** 0.0
20044 C 57.8499 9.67941 43.6578 C 0.0 **** 0.0
20045 C 57.6036 8.89332 44.8536 C 0.0 **** 0.0
20046 C 57.213 9.81129 46.002 C 0.0 **** 0.0
20047 C 55.8574 13.9954 45.0517 C 0.0 **** 0.0
20048 C 56.1053 14.8546 43.9699 C 0.0 **** 0.0
20049 C 57.3785 14.825 43.3451 C 0.0 **** 0.0
20050 C 58.3034 13.8419 43.7273 C 0.0 **** 0.0
20051 C 57.7135 15.8666 42.3801 C 0.0 **** 0.0
20052 C 56.6642 16.6152 41.7034 C 0.0 **** 0.0
20053 C 55.438 16.6914 42.3707 C 0.0 **** 0.0
20054 C 55.1757 15.947 43.6102 C 0.0 **** 0.0
20055 C 54.2887 17.4321 41.6915 C 0.0 **** 0.0
20056 C 54.8117 18.6177 40.9248 C 0.0 **** 0.0
20057 C 55.9881 18.2812 40.0522 C 0.0 **** 0.0
20058 C 56.8486 17.2497 40.4616 C 0.0 **** 0.0
20059 N 57.9535 16.9494 39.685 N 0.0 **** 0.0
20060 C 58.1974 17.594 38.5135 C 0.0 **** 0.0
20061 C 57.3784 18.625 38.0285 C 0.0 **** 0.0
20062 C 56.2683 18.9831 38.8598 C 0.0 **** 0.0
20063 C 55.5019 20.2287 38.5713 C 0.0 **** 0.0
20064 C 55.9559 21.0893 37.3715 C 0.0 **** 0.0
20065 C 56.5121 20.2261 36.2709 C 0.0 **** 0.0
20066 C 57.7421 19.4473 36.8137 C 0.0 **** 0.0
20067 C 58.3083 18.5324 35.7547 C 0.0 **** 0.0
20068 C 59.4216 17.6794 36.3169 C 0.0 **** 0.0
20069 C 59.3217 17.2322 37.6962 C 0.0 **** 0.0
20070 C 60.3463 16.4361 38.1286 C 0.0 **** 0.0
20071 C 61.3972 16.0497 37.2898 C 0.0 **** 0.0
20072 C 61.3548 16.2473 35.9342 C 0.0 **** 0.0
20073 C 60.2907 17.0239 35.4266 C 0.0 **** 0.0
20074 C 49.2015 11.4563 49.5854 C 0.0 **** 0.0
20075 C 49.5835 10.1872 48.8322 C 0.0 **** 0.0
20076 C 49.6233 10.8161 52.4689 C 0.0 **** 0.0
20077 C 51.0354 13.5856 48.4055 C 0.0 **** 0.0
20078 C 51.4835 12.5624 53.9506 C 0.0 **** 0.0
20079 C 56.6665 12.4498 53.5376 C 0.0 **** 0.0
20080 C 58.843 11.8994 51.6095 C 0.0 **** 0.0
20081 O 58.9288 10.6303 49.1561 O 0.0 **** 0.0
20082 C 58.7341 7.93096 45.3277 C 0.0 **** 0.0
20083 C 58.0326 8.78814 42.4111 C 0.0 **** 0.0
20084 O 59.5473 13.7346 43.0519 O 0.0 **** 0.0
20085 O 54.5877 13.8994 45.6363 O 0.0 **** 0.0
20086 O 54.3032 16.257 44.4197 O 0.0 **** 0.0
20087 O 58.8732 16.1589 42.2 O 0.0 **** 0.0
20088 C 60.1018 17.1985 33.9318 C 0.0 **** 0.0
20089 C 62.3933 15.639 35.0488 C 0.0 **** 0.0
20090 H 53.568 13.3582 48.5741 H 0.0 **** 0.0
20091 H 53.6773 14.9543 49.6395 H 0.0 **** 0.0
20092 H 54.0038 14.4522 52.6129 H 0.0 **** 0.0
20093 H 54.0821 12.8203 53.3324 H 0.0 **** 0.0
20094 H 55.4594 14.273 47.6669 H 0.0 **** 0.0
20095 H 59.1055 11.2602 42.8558 H 0.0 **** 0.0
20096 H 59.9327 10.1591 43.9724 H 0.0 **** 0.0
20097 H 56.9206 10.2687 43.5051 H 0.0 **** 0.0
20098 H 56.7476 8.22402 44.5982 H 0.0 **** 0.0
20099 H 56.9886 9.18887 46.938 H 0.0 **** 0.0
20100 H 56.2331 10.3024 45.7821 H 0.0 **** 0.0
20101 H 53.7328 16.7381 40.9882 H 0.0 **** 0.0
20102 H 53.6132 17.7776 42.4826 H 0.0 **** 0.0
20103 H 55.131 19.3978 41.6277 H 0.0 **** 0.0
20104 H 53.9951 19.0001 40.3261 H 0.0 **** 0.0
20105 H 54.4579 19.9843 38.4125 H 0.0 **** 0.0
20106 H 55.4958 20.9001 39.4599 H 0.0 **** 0.0
20107 H 56.7335 21.8253 37.7833 H 0.0 **** 0.0
20108 H 55.0788 21.5782 36.9006 H 0.0 **** 0.0
20109 H 56.791 20.7986 35.3784 H 0.0 **** 0.0
20110 H 55.7394 19.4461 35.9723 H 0.0 **** 0.0
20111 H 58.514 20.1592 37.1111 H 0.0 **** 0.0
20112 H 57.5297 17.8466 35.2673 H 0.0 **** 0.0
20113 H 58.7221 19.2042 34.9309 H 0.0 **** 0.0
20114 H 60.3587 16.0066 39.1293 H 0.0 **** 0.0
20115 H 62.1458 15.353 37.7317 H 0.0 **** 0.0
20116 H 48.8572 12.1727 48.819 H 0.0 **** 0.0
20117 H 48.3405 11.2551 50.259 H 0.0 **** 0.0
20118 H 50.2965 9.59719 49.5072 H 0.0 **** 0.0
20119 H 50.144 10.4883 47.9094 H 0.0 **** 0.0
20120 H 48.6616 9.62413 48.522 H 0.0 **** 0.0
20121 H 50.0179 10.378 53.3939 H 0.0 **** 0.0
20122 H 49.4568 9.85865 51.8247 H 0.0 **** 0.0
20123 H 48.6674 11.3417 52.7379 H 0.0 **** 0.0
20124 H 51.2093 12.8084 47.6015 H 0.0 **** 0.0
20125 H 51.6579 14.467 48.1772 H 0.0 **** 0.0
20126 H 50.0235 13.9581 48.2987 H 0.0 **** 0.0
20127 H 51.8101 13.5823 54.2124 H 0.0 **** 0.0
20128 H 52.1073 11.8909 54.5036 H 0.0 **** 0.0
20129 H 50.397 12.4688 54.3073 H 0.0 **** 0.0
20130 H 57.5543 11.8471 53.7222 H 0.0 **** 0.0
20131 H 55.8203 11.8998 54.0392 H 0.0 **** 0.0
20132 H 56.76 13.4076 54.0819 H 0.0 **** 0.0
20133 H 59.6866 12.0227 50.9211 H 0.0 **** 0.0
20134 H 58.8805 10.9104 52.0925 H 0.0 **** 0.0
20135 H 59.0886 12.5982 52.4373 H 0.0 **** 0.0
20136 H 59.501 10.2555 48.4487 H 0.0 **** 0.0
20137 H 58.9719 7.11214 44.6239 H 0.0 **** 0.0
20138 H 58.468 7.3755 46.2453 H 0.0 **** 0.0
20139 H 59.7113 8.4284 45.5501 H 0.0 **** 0.0
20140 H 58.5296 9.35151 41.6275 H 0.0 **** 0.0
20141 H 57.0455 8.35252 42.0027 H 0.0 **** 0.0
20142 H 58.7353 8.0006 42.6683 H 0.0 **** 0.0
20143 H 60.1796 13.0668 43.4766 H 0.0 **** 0.0
20144 H 53.8217 13.9787 44.9766 H 0.0 **** 0.0
20145 H 59.0354 17.1429 33.6581 H 0.0 **** 0.0
20146 H 60.6125 16.3792 33.3787 H 0.0 **** 0.0
20147 H 60.4901 18.1199 33.4173 H 0.0 **** 0.0
20148 H 61.9582 14.8591 34.3884 H 0.0 **** 0.0
20149 H 63.2098 15.2154 35.6631 H 0.0 **** 0.0
20150 H 62.8422 16.4259 34.4281 H 0.0 **** 0.0
20151 C 55.2654 17.0234 111.577 C 0.0 **** 0.0
20152 C 56.5614 16.7791 111.155 C 0.0 **** 0.0
20153 C 56.8098 16.3734 109.817 C 0.0 **** 0.0
20154 C 55.7219 16.2153 108.943 C 0.0 **** 0.0
20155 C 54.3935 16.2371 109.423 C 0.0 **** 0.0
20156 C 54.1593 16.6786 110.755 C 0.0 **** 0.0
20157 C 55.9787 15.8836 107.504 C 0.0 **** 0.0
20158 C 57.4235 15.8227 106.99 C 0.0 **** 0.0
20159 C 58.5124 15.9794 107.889 C 0.0 **** 0.0
20160 C 58.2395 16.2216 109.341 C 0.0 **** 0.0
20161 C 59.8563 15.7593 107.464 C 0.0 **** 0.0
20162 C 60.0851 15.289 106.142 C 0.0 **** 0.0
20163 C 59.0366 15.3421 105.177 C 0.0 **** 0.0
20164 C 57.727 15.4773 105.634 C 0.0 **** 0.0
20165 C 56.6802 15.3011 104.69 C 0.0 **** 0.0
20166 C 56.9055 15.0775 103.354 C 0.0 **** 0.0
20167 C 58.2106 14.7633 102.949 C 0.0 **** 0.0
20168 C 59.2921 15.0749 103.787 C 0.0 **** 0.0
20169 C 58.4936 14.189 101.539 C 0.0 **** 0.0
20170 C 57.2139 13.7397 100.803 C 0.0 **** 0.0
20171 C 56.0924 14.7295 101.058 C 0.0 **** 0.0
20172 C 55.8915 15.2109 102.347 C 0.0 **** 0.0
20173 C 56.7303 12.3064 101.091 C 0.0 **** 0.0
20174 C 57.3586 11.7051 102.353 C 0.0 **** 0.0
20175 C 58.824 11.6908 102.296 C 0.0 **** 0.0
20176 C 59.4117 12.9466 101.603 C 0.0 **** 0.0
20177 C 54.6945 15.9384 102.57 C 0.0 **** 0.0
20178 C 53.7452 16.1506 101.503 C 0.0 **** 0.0
20179 C 54.0332 15.6899 100.204 C 0.0 **** 0.0
20180 C 55.2387 14.9643 100.012 C 0.0 **** 0.0
20181 C 53.062 16.0899 99.1063 C 0.0 **** 0.0
20182 C 51.685 16.6022 99.4388 C 0.0 **** 0.0
20183 C 51.493 17.1579 100.682 C 0.0 **** 0.0
20184 C 52.5065 16.9844 101.716 C 0.0 **** 0.0
20185 C 50.2243 17.9431 100.962 C 0.0 **** 0.0
20186 C 49.0496 17.0996 100.473 C 0.0 **** 0.0
20187 C 49.2344 16.6548 99.0114 C 0.0 **** 0.0
20188 C 50.5752 16.4325 98.586 C 0.0 **** 0.0
20189 N 50.7634 15.847 97.4067 N 0.0 **** 0.0
20190 C 49.7787 15.6464 96.4807 C 0.0 **** 0.0
20191 C 48.4365 15.9323 96.8528 C 0.0 **** 0.0
20192 C 48.1745 16.4073 98.1448 C 0.0 **** 0.0
20193 C 46.7126 16.77 98.554 C 0.0 **** 0.0
20194 C 45.6559 16.6572 97.4424 C 0.0 **** 0.0
20195 C 45.9878 15.5333 96.4655 C 0.0 **** 0.0
20196 C 47.3473 15.7837 95.7858 C 0.0 **** 0.0
20197 C 47.6984 14.6793 94.7793 C 0.0 **** 0.0
20198 C 49.1729 14.7751 94.2822 C 0.0 **** 0.0
20199 C 50.1585 15.1667 95.2174 C 0.0 **** 0.0
20200 C 51.5396 15.0131 94.9009 C 0.0 **** 0.0
20201 C 51.901 14.5323 93.6844 C 0.0 **** 0.0
20202 C 50.9509 14.0452 92.7839 C 0.0 **** 0.0
20203 C 49.5763 14.0974 93.1141 C 0.0 **** 0.0
20204 C 52.762 16.7102 111.364 C 0.0 **** 0.0
20205 C 52.29 15.2571 111.579 C 0.0 **** 0.0
20206 C 55.0544 17.5101 113.022 C 0.0 **** 0.0
20207 C 53.2649 15.9878 108.444 C 0.0 **** 0.0
20208 C 57.7645 16.9917 112.065 C 0.0 **** 0.0
20209 C 60.9974 16.2195 108.329 C 0.0 **** 0.0
20210 C 61.4194 14.6387 105.81 C 0.0 **** 0.0
20211 O 60.5791 15.1707 103.282 O 0.0 **** 0.0
20212 C 59.4794 10.435 101.654 C 0.0 **** 0.0
20213 C 56.7116 10.3761 102.682 C 0.0 **** 0.0
20214 O 55.6114 14.4828 98.7417 O 0.0 **** 0.0
20215 O 54.6152 16.8057 103.659 O 0.0 **** 0.0
20216 O 52.3363 17.5101 102.802 O 0.0 **** 0.0
20217 O 53.4322 16.0591 97.9297 O 0.0 **** 0.0
20218 C 48.5328 13.3415 92.2585 C 0.0 **** 0.0
20219 C 51.43 13.3372 91.5618 C 0.0 **** 0.0
20220 H 55.5559 14.8854 107.242 H 0.0 **** 0.0
20221 H 55.5458 16.6897 106.885 H 0.0 **** 0.0
20222 H 58.7799 17.1111 109.589 H 0.0 **** 0.0
20223 H 58.7307 15.4157 109.908 H 0.0 **** 0.0
20224 H 55.6792 15.2398 105.058 H 0.0 **** 0.0
20225 H 55.6303 12.254 101.127 H 0.0 **** 0.0
20226 H 56.9251 11.7259 100.154 H 0.0 **** 0.0
20227 H 57.1065 12.4141 103.155 H 0.0 **** 0.0
20228 H 59.1866 11.7306 103.326 H 0.0 **** 0.0
20229 H 59.5788 12.7205 100.539 H 0.0 **** 0.0
20230 H 60.4681 13.1354 101.942 H 0.0 **** 0.0
20231 H 50.0817 18.1937 102.029 H 0.0 **** 0.0
20232 H 50.2405 18.8916 100.416 H 0.0 **** 0.0
20233 H 48.121 17.6605 100.63 H 0.0 **** 0.0
20234 H 48.9658 16.2074 101.055 H 0.0 **** 0.0
20235 H 46.3866 16.0737 99.4191 H 0.0 **** 0.0
20236 H 46.7337 17.824 98.9226 H 0.0 **** 0.0
20237 H 45.631 17.6094 96.8995 H 0.0 **** 0.0
20238 H 44.631 16.4935 97.8772 H 0.0 **** 0.0
20239 H 45.1244 15.4702 95.6891 H 0.0 **** 0.0
20240 H 46.0657 14.5313 97.0162 H 0.0 **** 0.0
20241 H 47.2938 16.76 95.2736 H 0.0 **** 0.0
20242 H 47.5441 13.7022 95.228 H 0.0 **** 0.0
20243 H 46.9784 14.6603 93.9181 H 0.0 **** 0.0
20244 H 52.319 15.4684 95.5458 H 0.0 **** 0.0
20245 H 52.9337 14.5202 93.4289 H 0.0 **** 0.0
20246 H 52.0246 17.3228 110.78 H 0.0 **** 0.0
20247 H 52.7276 17.2124 112.353 H 0.0 **** 0.0
20248 H 52.9991 14.6719 112.205 H 0.0 **** 0.0
20249 H 52.1043 14.8265 110.616 H 0.0 **** 0.0
20250 H 51.2963 15.1765 112.128 H 0.0 **** 0.0
20251 H 55.9472 17.7504 113.549 H 0.0 **** 0.0
20252 H 54.4974 16.7652 113.591 H 0.0 **** 0.0
20253 H 54.489 18.4799 112.957 H 0.0 **** 0.0
20254 H 53.4522 16.2566 107.365 H 0.0 **** 0.0
20255 H 52.3177 16.4054 108.764 H 0.0 **** 0.0
20256 H 53.1693 14.8509 108.453 H 0.0 **** 0.0
20257 H 58.7381 16.583 111.713 H 0.0 **** 0.0
20258 H 57.6559 16.5136 113.068 H 0.0 **** 0.0
20259 H 57.9264 18.0881 112.3 H 0.0 **** 0.0
20260 H 62.0142 16.046 107.888 H 0.0 **** 0.0
20261 H 60.9662 15.7696 109.347 H 0.0 **** 0.0
20262 H 60.8781 17.318 108.402 H 0.0 **** 0.0
20263 H 61.3637 13.7627 105.13 H 0.0 **** 0.0
20264 H 61.8881 14.2164 106.72 H 0.0 **** 0.0
20265 H 62.119 15.4169 105.4 H 0.0 **** 0.0
20266 H 60.655 15.3751 102.284 H 0.0 **** 0.0
20267 H 59.5148 9.59761 102.346 H 0.0 **** 0.0
20268 H 60.5879 10.7093 101.502 H 0.0 **** 0.0
20269 H 59.1223 10.1994 100.641 H 0.0 **** 0.0
20270 H 55.6154 10.4472 102.747 H 0.0 **** 0.0
20271 H 57.0559 9.95257 103.648 H 0.0 **** 0.0
20272 H 56.8916 9.68822 101.858 H 0.0 **** 0.0
20273 H 54.8165 14.136 98.1391 H 0.0 **** 0.0
20274 H 53.8967 16.571 104.3 H 0.0 **** 0.0
20275 H 48.0003 12.5326 92.8116 H 0.0 **** 0.0
20276 H 48.969 12.8236 91.3486 H 0.0 **** 0.0
20277 H 47.8042 14.0949 91.8457 H 0.0 **** 0.0
20278 H 51.3119 12.2247 91.7522 H 0.0 **** 0.0
20279 H 52.4555 13.4814 91.3669 H 0.0 **** 0.0
20280 H 50.9097 13.7486 90.6606 H 0.0 **** 0.0
20281 C 20.517 82.3489 27.2901 C 0.0 **** 0.0
20282 C 20.6664 81.5297 28.4815 C 0.0 **** 0.0
20283 C 20.4241 82.1063 29.7684 C 0.0 **** 0.0
20284 C 19.8851 83.4022 29.9079 C 0.0 **** 0.0
20285 C 19.5515 84.1318 28.7271 C 0.0 **** 0.0
20286 C 19.8585 83.6171 27.4359 C 0.0 **** 0.0
20287 C 19.642 84.0032 31.2926 C 0.0 **** 0.0
20288 C 20.1274 83.2268 32.4903 C 0.0 **** 0.0
20289 C 20.6185 81.9248 32.3552 C 0.0 **** 0.0
20290 C 20.6868 81.2441 31.0 C 0.0 **** 0.0
20291 C 21.1838 81.2961 33.4991 C 0.0 **** 0.0
20292 C 21.3766 82.0439 34.6829 C 0.0 **** 0.0
20293 C 20.7254 83.2874 34.8669 C 0.0 **** 0.0
20294 C 20.0573 83.8627 33.7611 C 0.0 **** 0.0
20295 C 19.2444 85.0535 33.9943 C 0.0 **** 0.0
20296 C 19.2698 85.7004 35.2663 C 0.0 **** 0.0
20297 C 20.1521 85.2218 36.2427 C 0.0 **** 0.0
20298 C 20.6408 83.9454 36.1268 C 0.0 **** 0.0
20299 C 20.7028 86.1532 37.3389 C 0.0 **** 0.0
20300 C 20.2654 87.62 37.0976 C 0.0 **** 0.0
20301 C 18.8545 87.799 36.5147 C 0.0 **** 0.0
20302 C 18.4491 86.8801 35.5221 C 0.0 **** 0.0
20303 C 20.8176 88.6412 38.0629 C 0.0 **** 0.0
20304 C 22.3012 88.4807 38.2288 C 0.0 **** 0.0
20305 C 22.7045 87.0488 38.5239 C 0.0 **** 0.0
20306 C 22.2451 86.155 37.3715 C 0.0 **** 0.0
20307 C 17.2378 87.1656 34.7785 C 0.0 **** 0.0
20308 C 16.633 88.436 34.878 C 0.0 **** 0.0
20309 C 16.9178 89.205 36.015 C 0.0 **** 0.0
20310 C 18.0925 88.9313 36.7871 C 0.0 **** 0.0
20311 C 16.0074 90.3302 36.3157 C 0.0 **** 0.0
20312 C 15.36 91.0419 35.1777 C 0.0 **** 0.0
20313 C 15.1667 90.3072 33.9848 C 0.0 **** 0.0
20314 C 15.6643 88.9413 33.8664 C 0.0 **** 0.0
20315 C 14.4803 90.9732 32.7903 C 0.0 **** 0.0
20316 C 14.6584 92.4872 32.7993 C 0.0 **** 0.0
20317 C 14.4055 93.0546 34.1498 C 0.0 **** 0.0
20318 C 14.9578 92.4074 35.287 C 0.0 **** 0.0
20319 N 14.9562 93.0134 36.5086 N 0.0 **** 0.0
20320 C 14.4014 94.2292 36.7415 C 0.0 **** 0.0
20321 C 13.7815 94.9065 35.633 C 0.0 **** 0.0
20322 C 13.6994 94.2727 34.3528 C 0.0 **** 0.0
20323 C 13.0323 95.002 33.2456 C 0.0 **** 0.0
20324 C 12.0902 96.1381 33.6623 C 0.0 **** 0.0
20325 C 12.7587 97.0556 34.7288 C 0.0 **** 0.0
20326 C 13.0772 96.2301 35.9832 C 0.0 **** 0.0
20327 C 13.9101 97.0434 37.0025 C 0.0 **** 0.0
20328 C 14.0511 96.2123 38.2574 C 0.0 **** 0.0
20329 C 14.4432 94.8436 38.0521 C 0.0 **** 0.0
20330 C 14.8284 94.0633 39.1523 C 0.0 **** 0.0
20331 C 14.6284 94.5781 40.4267 C 0.0 **** 0.0
20332 C 14.2005 95.9137 40.6267 C 0.0 **** 0.0
20333 C 13.9648 96.7763 39.5482 C 0.0 **** 0.0
20334 C 19.4788 84.3973 26.1441 C 0.0 **** 0.0
20335 C 20.6472 85.1551 25.56 C 0.0 **** 0.0
20336 C 21.0344 81.8176 25.9327 C 0.0 **** 0.0
20337 C 18.9038 85.4809 28.8827 C 0.0 **** 0.0
20338 C 21.2372 80.172 28.3364 C 0.0 **** 0.0
20339 C 21.5796 79.818 33.4975 C 0.0 **** 0.0
20340 C 22.4505 81.5966 35.6522 C 0.0 **** 0.0
20341 O 20.9807 83.2243 37.2847 O 0.0 **** 0.0
20342 C 22.2126 86.5453 39.8582 C 0.0 **** 0.0
20343 C 22.8697 89.5332 39.2288 C 0.0 **** 0.0
20344 O 18.4711 89.8224 37.8424 O 0.0 **** 0.0
20345 O 16.612 86.1763 34.0061 O 0.0 **** 0.0
20346 O 15.2056 88.1893 33.0312 O 0.0 **** 0.0
20347 O 15.667 90.5019 37.4792 O 0.0 **** 0.0
20348 C 13.4791 98.1806 39.7394 C 0.0 **** 0.0
20349 C 13.9991 96.4194 42.0228 C 0.0 **** 0.0
20350 H 20.1444 84.976 31.3743 H 0.0 **** 0.0
20351 H 18.5559 84.1613 31.375 H 0.0 **** 0.0
20352 H 19.8923 80.522 30.9591 H 0.0 **** 0.0
20353 H 21.7626 80.9115 30.9919 H 0.0 **** 0.0
20354 H 18.6877 85.4505 33.138 H 0.0 **** 0.0
20355 H 20.6774 89.6423 37.6588 H 0.0 **** 0.0
20356 H 20.2401 88.5377 39.0658 H 0.0 **** 0.0
20357 H 22.7587 88.779 37.2519 H 0.0 **** 0.0
20358 H 23.8278 87.0224 38.5416 H 0.0 **** 0.0
20359 H 22.623 85.1519 37.6129 H 0.0 **** 0.0
20360 H 22.6496 86.508 36.4051 H 0.0 **** 0.0
20361 H 14.8903 90.5797 31.8269 H 0.0 **** 0.0
20362 H 13.4036 90.6816 32.8129 H 0.0 **** 0.0
20363 H 14.0329 92.9292 31.9643 H 0.0 **** 0.0
20364 H 15.7167 92.7121 32.4935 H 0.0 **** 0.0
20365 H 13.7906 95.406 32.5801 H 0.0 **** 0.0
20366 H 12.4367 94.2884 32.6019 H 0.0 **** 0.0
20367 H 11.2202 95.6276 34.0718 H 0.0 **** 0.0
20368 H 11.8135 96.7937 32.761 H 0.0 **** 0.0
20369 H 12.0532 97.9217 34.9377 H 0.0 **** 0.0
20370 H 13.7153 97.4831 34.354 H 0.0 **** 0.0
20371 H 12.0985 95.9805 36.4862 H 0.0 **** 0.0
20372 H 14.8976 97.2691 36.5729 H 0.0 **** 0.0
20373 H 13.4029 98.0031 37.1235 H 0.0 **** 0.0
20374 H 15.1393 93.0256 39.0969 H 0.0 **** 0.0
20375 H 14.8216 93.9174 41.2903 H 0.0 **** 0.0
20376 H 18.6603 85.1053 26.3381 H 0.0 **** 0.0
20377 H 19.1038 83.6727 25.4059 H 0.0 **** 0.0
20378 H 20.4104 85.5248 24.5441 H 0.0 **** 0.0
20379 H 21.5461 84.5358 25.5338 H 0.0 **** 0.0
20380 H 20.9301 85.9697 26.2741 H 0.0 **** 0.0
20381 H 22.1109 81.4501 26.0557 H 0.0 **** 0.0
20382 H 21.0915 82.4596 25.0445 H 0.0 **** 0.0
20383 H 20.3746 80.9427 25.6645 H 0.0 **** 0.0
20384 H 18.681 85.8787 29.894 H 0.0 **** 0.0
20385 H 17.9282 85.4624 28.3689 H 0.0 **** 0.0
20386 H 19.528 86.2918 28.4455 H 0.0 **** 0.0
20387 H 21.1929 79.5508 29.2187 H 0.0 **** 0.0
20388 H 22.2884 80.2887 28.0515 H 0.0 **** 0.0
20389 H 20.6662 79.5686 27.6537 H 0.0 **** 0.0
20390 H 21.3288 79.3978 34.4964 H 0.0 **** 0.0
20391 H 22.6867 79.7001 33.3344 H 0.0 **** 0.0
20392 H 21.0057 79.2866 32.6702 H 0.0 **** 0.0
20393 H 22.833 82.4463 36.2352 H 0.0 **** 0.0
20394 H 23.3268 81.2897 35.0268 H 0.0 **** 0.0
20395 H 22.0909 80.8352 36.3183 H 0.0 **** 0.0
20396 H 20.5513 83.5202 38.1191 H 0.0 **** 0.0
20397 H 23.0172 86.8835 40.5823 H 0.0 **** 0.0
20398 H 22.1107 85.4339 39.9225 H 0.0 **** 0.0
20399 H 21.2451 86.9693 40.115 H 0.0 **** 0.0
20400 H 22.4619 90.5255 38.9489 H 0.0 **** 0.0
20401 H 23.9604 89.6509 39.1148 H 0.0 **** 0.0
20402 H 22.4971 89.4181 40.2721 H 0.0 **** 0.0
20403 H 17.9083 90.5832 38.0311 H 0.0 **** 0.0
20404 H 16.8373 85.2456 34.3421 H 0.0 **** 0.0
20405 H 14.2146 98.8316 39.2215 H 0.0 **** 0.0
20406 H 13.438 98.4578 40.7849 H 0.0 **** 0.0
20407 H 12.4675 98.2624 39.2868 H 0.0 **** 0.0
20408 H 14.638 97.3278 42.2248 H 0.0 **** 0.0
20409 H 14.3257 95.6529 42.748 H 0.0 **** 0.0
20410 H 12.9076 96.7085 42.2229 H 0.0 **** 0.0
20411 C 26.1577 63.1577 33.0509 C 0.0 **** 0.0
20412 C 27.0648 62.3221 32.3993 C 0.0 **** 0.0
20413 C 26.6695 61.5172 31.2746 C 0.0 **** 0.0
20414 C 25.3291 61.4504 30.9154 C 0.0 **** 0.0
20415 C 24.4289 62.3431 31.474 C 0.0 **** 0.0
20416 C 24.86 63.2566 32.4825 C 0.0 **** 0.0
20417 C 24.8929 60.4985 29.827 C 0.0 **** 0.0
20418 C 25.8656 59.4106 29.3651 C 0.0 **** 0.0
20419 C 27.2284 59.4346 29.7685 C 0.0 **** 0.0
20420 C 27.6879 60.5086 30.7249 C 0.0 **** 0.0
20421 C 28.1253 58.4368 29.3157 C 0.0 **** 0.0
20422 C 27.6088 57.3581 28.4951 C 0.0 **** 0.0
20423 C 26.2063 57.2595 28.2609 C 0.0 **** 0.0
20424 C 25.3785 58.3629 28.4968 C 0.0 **** 0.0
20425 C 24.1136 58.3978 27.9378 C 0.0 **** 0.0
20426 C 23.6161 57.3406 27.2016 C 0.0 **** 0.0
20427 C 24.1967 56.0704 27.5197 C 0.0 **** 0.0
20428 C 25.5571 56.0268 27.936 C 0.0 **** 0.0
20429 C 23.4143 54.7621 27.2764 C 0.0 **** 0.0
20430 C 22.0259 55.0716 26.6664 C 0.0 **** 0.0
20431 C 21.9429 56.3017 25.7861 C 0.0 **** 0.0
20432 C 22.5862 57.4752 26.2064 C 0.0 **** 0.0
20433 C 21.0307 55.206 27.804 C 0.0 **** 0.0
20434 C 20.7839 53.8311 28.4408 C 0.0 **** 0.0
20435 C 22.001 52.9955 28.5615 C 0.0 **** 0.0
20436 C 23.334 53.8637 28.5434 C 0.0 **** 0.0
20437 C 22.1169 58.7044 25.67 C 0.0 **** 0.0
20438 C 21.0931 58.7042 24.6314 C 0.0 **** 0.0
20439 C 20.6184 57.5109 24.1529 C 0.0 **** 0.0
20440 C 20.9653 56.2967 24.8065 C 0.0 **** 0.0
20441 C 19.6584 57.5123 23.047 C 0.0 **** 0.0
20442 C 19.5028 58.7574 22.196 C 0.0 **** 0.0
20443 C 19.8178 59.9747 22.8028 C 0.0 **** 0.0
20444 C 20.431 59.9749 24.1291 C 0.0 **** 0.0
20445 C 19.442 61.2573 22.1353 C 0.0 **** 0.0
20446 C 19.4998 61.196 20.6082 C 0.0 **** 0.0
20447 C 18.9479 59.8548 20.0566 C 0.0 **** 0.0
20448 C 19.0142 58.6922 20.8713 C 0.0 **** 0.0
20449 N 18.6224 57.4894 20.2761 N 0.0 **** 0.0
20450 C 18.1811 57.3547 18.9925 C 0.0 **** 0.0
20451 C 18.1048 58.4877 18.1943 C 0.0 **** 0.0
20452 C 18.5263 59.7351 18.6904 C 0.0 **** 0.0
20453 C 18.5747 61.0036 17.7954 C 0.0 **** 0.0
20454 C 18.2774 60.7214 16.2969 C 0.0 **** 0.0
20455 C 17.1503 59.7077 16.1647 C 0.0 **** 0.0
20456 C 17.6434 58.3649 16.7605 C 0.0 **** 0.0
20457 C 16.5048 57.346 16.6325 C 0.0 **** 0.0
20458 C 16.7379 56.0863 17.4322 C 0.0 **** 0.0
20459 C 17.5813 56.1314 18.5658 C 0.0 **** 0.0
20460 C 17.8735 54.9653 19.2668 C 0.0 **** 0.0
20461 C 17.4247 53.7623 18.788 C 0.0 **** 0.0
20462 C 16.5185 53.6728 17.7219 C 0.0 **** 0.0
20463 C 16.0946 54.8734 17.0655 C 0.0 **** 0.0
20464 C 23.9836 64.3169 33.0329 C 0.0 **** 0.0
20465 C 23.1175 63.7418 34.2058 C 0.0 **** 0.0
20466 C 26.5584 63.9816 34.3044 C 0.0 **** 0.0
20467 C 22.975 62.3434 30.9742 C 0.0 **** 0.0
20468 C 28.4679 62.2256 33.0243 C 0.0 **** 0.0
20469 C 29.5735 58.4464 29.7091 C 0.0 **** 0.0
20470 C 28.5629 56.3613 27.839 C 0.0 **** 0.0
20471 O 26.3109 54.8352 27.955 O 0.0 **** 0.0
20472 C 22.1974 51.9871 27.3854 C 0.0 **** 0.0
20473 C 19.6005 53.1658 27.7541 C 0.0 **** 0.0
20474 O 20.2203 55.1631 24.4634 O 0.0 **** 0.0
20475 O 22.7127 59.9026 26.0592 O 0.0 **** 0.0
20476 O 20.2953 60.9429 24.862 O 0.0 **** 0.0
20477 O 18.9467 56.5266 22.8334 O 0.0 **** 0.0
20478 C 14.9908 54.7919 16.0314 C 0.0 **** 0.0
20479 C 16.0765 52.2931 17.2364 C 0.0 **** 0.0
20480 H 23.8854 60.0273 30.12 H 0.0 **** 0.0
20481 H 24.6711 61.131 28.9457 H 0.0 **** 0.0
20482 H 28.4545 61.1747 30.2807 H 0.0 **** 0.0
20483 H 28.0514 59.9273 31.6517 H 0.0 **** 0.0
20484 H 23.5159 59.2459 28.0938 H 0.0 **** 0.0
20485 H 21.3968 55.9289 28.5934 H 0.0 **** 0.0
20486 H 20.0914 55.6751 27.4187 H 0.0 **** 0.0
20487 H 20.4935 54.1079 29.5295 H 0.0 **** 0.0
20488 H 21.9674 52.4047 29.519 H 0.0 **** 0.0
20489 H 24.3122 53.3179 28.579 H 0.0 **** 0.0
20490 H 23.3312 54.5085 29.4616 H 0.0 **** 0.0
20491 H 18.4054 61.4252 22.3863 H 0.0 **** 0.0
20492 H 20.0834 62.0444 22.5403 H 0.0 **** 0.0
20493 H 20.511 61.3524 20.2547 H 0.0 **** 0.0
20494 H 18.8978 62.0504 20.2422 H 0.0 **** 0.0
20495 H 17.8436 61.7636 18.2282 H 0.0 **** 0.0
20496 H 19.6096 61.383 17.8203 H 0.0 **** 0.0
20497 H 19.2259 60.2949 15.8085 H 0.0 **** 0.0
20498 H 18.011 61.6438 15.7433 H 0.0 **** 0.0
20499 H 16.8643 59.4855 15.1454 H 0.0 **** 0.0
20500 H 16.3166 60.034 16.8252 H 0.0 **** 0.0
20501 H 18.502 57.9605 16.1807 H 0.0 **** 0.0
20502 H 15.5393 57.816 16.9168 H 0.0 **** 0.0
20503 H 16.4426 57.105 15.5457 H 0.0 **** 0.0
20504 H 18.4863 54.9637 20.111 H 0.0 **** 0.0
20505 H 17.7375 52.8594 19.2914 H 0.0 **** 0.0
20506 H 23.3511 64.7214 32.2747 H 0.0 **** 0.0
20507 H 24.5932 65.221 33.4094 H 0.0 **** 0.0
20508 H 22.5703 64.5951 34.6861 H 0.0 **** 0.0
20509 H 23.6893 63.2652 35.0104 H 0.0 **** 0.0
20510 H 22.3616 63.0598 33.823 H 0.0 **** 0.0
20511 H 27.2819 63.428 34.9481 H 0.0 **** 0.0
20512 H 25.7115 64.1627 34.9934 H 0.0 **** 0.0
20513 H 27.0113 64.9478 33.9251 H 0.0 **** 0.0
20514 H 22.3878 63.2769 31.0968 H 0.0 **** 0.0
20515 H 22.3951 61.5427 31.4613 H 0.0 **** 0.0
20516 H 22.9611 62.2014 29.8665 H 0.0 **** 0.0
20517 H 29.2531 62.0657 32.2676 H 0.0 **** 0.0
20518 H 28.5845 61.427 33.7793 H 0.0 **** 0.0
20519 H 28.8891 63.1349 33.4984 H 0.0 **** 0.0
20520 H 30.206 58.8237 28.8657 H 0.0 **** 0.0
20521 H 29.965 57.4966 30.0448 H 0.0 **** 0.0
20522 H 29.7449 59.2106 30.4792 H 0.0 **** 0.0
20523 H 28.699 55.4874 28.5461 H 0.0 **** 0.0
20524 H 29.5343 56.8216 27.6487 H 0.0 **** 0.0
20525 H 28.1384 56.0063 26.8538 H 0.0 **** 0.0
20526 H 25.8886 54.036 27.4695 H 0.0 **** 0.0
20527 H 21.4391 51.2147 27.4096 H 0.0 **** 0.0
20528 H 23.1969 51.5001 27.3656 H 0.0 **** 0.0
20529 H 22.1309 52.4039 26.3505 H 0.0 **** 0.0
20530 H 18.694 53.7829 27.7999 H 0.0 **** 0.0
20531 H 19.3144 52.2548 28.3144 H 0.0 **** 0.0
20532 H 19.8004 52.814 26.7265 H 0.0 **** 0.0
20533 H 20.6126 54.3172 24.8157 H 0.0 **** 0.0
20534 H 22.5092 60.6962 25.4972 H 0.0 **** 0.0
20535 H 14.5676 55.7323 15.6269 H 0.0 **** 0.0
20536 H 14.1155 54.3133 16.4967 H 0.0 **** 0.0
20537 H 15.253 54.1574 15.1762 H 0.0 **** 0.0
20538 H 16.2614 52.1886 16.1354 H 0.0 **** 0.0
20539 H 15.0319 52.0765 17.5085 H 0.0 **** 0.0
20540 H 16.6211 51.4943 17.6485 H 0.0 **** 0.0
20541 C1 11.6982 74.8689 59.0698 C 0.0 **** 0.0
20542 C2 12.6087 75.9399 59.238 C 0.0 **** 0.0
20543 C3 13.6211 76.1016 58.2658 C 0.0 **** 0.0
20544 C4 13.7603 75.1611 57.2351 C 0.0 **** 0.0
20545 C5 12.8419 74.0782 57.089 C 0.0 **** 0.0
20546 C6 11.7995 73.9407 58.0055 C 0.0 **** 0.0
20547 C7 14.9143 75.6022 56.3612 C 0.0 **** 0.0
20548 C8 15.3941 76.8011 56.9343 C 0.0 **** 0.0
20549 C9 14.6749 77.1538 58.2138 C 0.0 **** 0.0
20550 C10 16.5089 77.4887 56.3972 C 0.0 **** 0.0
20551 C11 17.1433 76.9294 55.2431 C 0.0 **** 0.0
20552 C12 16.6753 75.6891 54.6951 C 0.0 **** 0.0
20553 C13 15.5801 75.0146 55.2634 C 0.0 **** 0.0
20554 C14 15.157 73.6154 54.7498 C 0.0 **** 0.0
20555 C15 16.3612 72.9451 53.9807 C 0.0 **** 0.0
20556 C16 17.0009 73.8118 52.9394 C 0.0 **** 0.0
20557 C17 17.3163 75.1761 53.4735 C 0.0 **** 0.0
20558 C18 18.1438 76.0474 52.7113 C 0.0 **** 0.0
20559 C19 18.5065 77.2928 53.2171 C 0.0 **** 0.0
20560 C20 18.2143 77.5797 54.5945 C 0.0 **** 0.0
20561 C21 18.7234 78.7717 55.203 C 0.0 **** 0.0
20562 C22 18.0526 79.3301 56.2523 C 0.0 **** 0.0
20563 C23 17.0061 78.6962 56.9179 C 0.0 **** 0.0
20564 C24 18.6815 78.4093 52.1633 C 0.0 **** 0.0
20565 C25 19.588 78.063 51.0236 C 0.0 **** 0.0
20566 C26 19.4138 76.7312 50.5416 C 0.0 **** 0.0
20567 C27 18.6296 75.6698 51.2883 C 0.0 **** 0.0
20568 C28 20.09 76.2898 49.4169 C 0.0 **** 0.0
20569 C29 21.1729 77.0119 48.9137 C 0.0 **** 0.0
20570 C30 21.3384 78.3433 49.3325 C 0.0 **** 0.0
20571 C31 20.4956 78.9295 50.3321 C 0.0 **** 0.0
20572 C32 22.2917 79.169 48.5467 C 0.0 **** 0.0
20573 C33 23.3638 78.5762 47.6809 C 0.0 **** 0.0
20574 C34 23.554 77.1065 47.9988 C 0.0 **** 0.0
20575 C35 22.1928 76.3549 47.999 C 0.0 **** 0.0
20576 C36 20.5291 80.3551 50.4433 C 0.0 **** 0.0
20577 C37 21.3576 81.0994 49.5992 C 0.0 **** 0.0
20578 C38 22.252 80.5199 48.7116 C 0.0 **** 0.0
20579 C39 18.6383 80.675 56.614 C 0.0 **** 0.0
20580 C40 19.7563 80.7204 55.6657 C 0.0 **** 0.0
20581 C41 19.82 79.5392 54.9858 C 0.0 **** 0.0
20582 C42 20.9122 79.2487 54.1715 C 0.0 **** 0.0
20583 C43 21.92 80.1882 54.0313 C 0.0 **** 0.0
20584 C44 21.8565 81.4463 54.7647 C 0.0 **** 0.0
20585 C45 20.7209 81.6887 55.5816 C 0.0 **** 0.0
20586 C46 20.6375 82.8677 56.3341 C 0.0 **** 0.0
20587 C47 21.6431 83.8503 56.1876 C 0.0 **** 0.0
20588 C48 22.6876 83.6302 55.3022 C 0.0 **** 0.0
20589 C49 22.9199 82.3729 54.6632 C 0.0 **** 0.0
20590 C50 24.0921 82.056 53.9318 C 0.0 **** 0.0
20591 C51 24.1156 80.8877 53.2032 C 0.0 **** 0.0
20592 C52 23.0332 79.9499 53.2162 C 0.0 **** 0.0
20593 O53 10.5886 74.7305 59.9407 O 0.0 **** 0.0
20594 C54 10.8729 72.8326 57.8771 C 0.0 **** 0.0
20595 O55 16.3914 79.3236 58.0251 O 0.0 **** 0.0
20596 C56 21.498 85.121 56.9536 C 0.0 **** 0.0
20597 C57 20.3886 85.9994 56.4174 C 0.0 **** 0.0
20598 O58 21.3769 82.4703 49.6453 O 0.0 **** 0.0
20599 O59 19.7901 75.1026 48.7773 O 0.0 **** 0.0
20600 O60 25.2615 82.8093 53.9822 O 0.0 **** 0.0
20601 H61 12.4699 76.6242 60.0425 H 0.0 **** 0.0
20602 H62 12.8118 73.3291 56.2794 H 0.0 **** 0.0
20603 H63 15.3714 77.1215 59.0439 H 0.0 **** 0.0
20604 H64 14.1854 78.1633 58.1483 H 0.0 **** 0.0
20605 H65 14.9741 72.9412 55.6306 H 0.0 **** 0.0
20606 H66 14.2627 73.6078 54.0798 H 0.0 **** 0.0
20607 H67 17.0745 72.5759 54.7489 H 0.0 **** 0.0
20608 H68 15.9829 72.0034 53.4944 H 0.0 **** 0.0
20609 H69 17.8949 73.3135 52.5103 H 0.0 **** 0.0
20610 H70 16.2946 73.915 52.1013 H 0.0 **** 0.0
20611 H71 17.6735 78.6712 51.814 H 0.0 **** 0.0
20612 H72 17.6792 75.4258 50.7102 H 0.0 **** 0.0
20613 H73 23.0231 78.7325 46.6224 H 0.0 **** 0.0
20614 H74 24.2731 79.1395 47.8717 H 0.0 **** 0.0
20615 H75 24.2821 76.6618 47.2826 H 0.0 **** 0.0
20616 H76 24.0799 77.1052 48.9989 H 0.0 **** 0.0
20617 H77 21.7609 76.3158 47.044 H 0.0 **** 0.0
20618 H78 22.3684 75.3338 48.2787 H 0.0 **** 0.0
20619 H79 19.8338 80.89 51.0981 H 0.0 **** 0.0
20620 H80 22.9903 81.135 48.1796 H 0.0 **** 0.0
20621 H81 17.9253 81.5329 56.4733 H 0.0 **** 0.0
20622 H82 19.0469 80.6295 57.6458 H 0.0 **** 0.0
20623 H83 21.0313 78.3036 53.6728 H 0.0 **** 0.0
20624 H84 19.8431 83.0328 57.0479 H 0.0 **** 0.0
20625 H85 23.4469 84.4129 55.2405 H 0.0 **** 0.0
20626 H86 25.0489 80.6087 52.6632 H 0.0 **** 0.0
20627 H87 23.1683 79.0031 52.6609 H 0.0 **** 0.0
20628 H88 10.6471 75.3209 60.7669 H 0.0 **** 0.0
20629 H89 11.0704 72.1415 58.7083 H 0.0 **** 0.0
20630 H90 11.0245 72.3006 56.907 H 0.0 **** 0.0
20631 H91 9.85304 73.2226 57.9842 H 0.0 **** 0.0
20632 H92 16.632 80.3306 58.0612 H 0.0 **** 0.0
20633 H93 21.2411 84.8883 58.0093 H 0.0 **** 0.0
20634 H94 20.3627 86.899 57.0443 H 0.0 **** 0.0
20635 H95 19.3878 85.4728 56.5236 H 0.0 **** 0.0
20636 H96 20.5848 86.2684 55.338 H 0.0 **** 0.0
20637 H97 20.8226 82.8598 50.3914 H 0.0 **** 0.0
20638 H98 18.8365 74.8006 48.8974 H 0.0 **** 0.0
20639 H99 25.2327 83.5028 54.6921 H 0.0 **** 0.0
20640 H100 18.9767 79.3714 52.6082 H 0.0 **** 0.0
20641 H101 19.1691 74.7198 51.3624 H 0.0 **** 0.0
20642 H102 22.4007 85.7356 56.8971 H 0.0 **** 0.0
20643 C1 83.4034 49.1724 67.0521 C 0.0 **** 0.0
20644 C2 82.0062 49.2885 66.9259 C 0.0 **** 0.0
20645 C3 81.2547 49.9316 67.9158 C 0.0 **** 0.0
20646 C4 81.8653 50.4052 69.0305 C 0.0 **** 0.0
20647 C5 83.2654 50.3819 69.1443 C 0.0 **** 0.0
20648 C6 84.0479 49.7839 68.1624 C 0.0 **** 0.0
20649 C7 80.7969 50.7914 69.9456 C 0.0 **** 0.0
20650 C8 79.53 50.6312 69.3364 C 0.0 **** 0.0
20651 C9 79.779 50.1407 67.9431 C 0.0 **** 0.0
20652 C10 78.3652 51.1563 69.9108 C 0.0 **** 0.0
20653 C11 78.5081 51.7604 71.1607 C 0.0 **** 0.0
20654 C12 79.7668 51.8515 71.8189 C 0.0 **** 0.0
20655 C13 80.9056 51.2433 71.2536 C 0.0 **** 0.0
20656 C14 82.186 51.1609 72.0018 C 0.0 **** 0.0
20657 C15 82.0127 51.2445 73.519 C 0.0 **** 0.0
20658 C16 81.1517 52.4585 73.9351 C 0.0 **** 0.0
20659 C17 79.8637 52.5041 73.1677 C 0.0 **** 0.0
20660 C18 78.7728 53.2538 73.6133 C 0.0 **** 0.0
20661 C19 77.5829 53.3059 72.8222 C 0.0 **** 0.0
20662 C20 77.3665 52.3906 71.744 C 0.0 **** 0.0
20663 C21 76.0823 52.1538 71.2018 C 0.0 **** 0.0
20664 C22 75.943 51.6622 69.9061 C 0.0 **** 0.0
20665 C23 77.0794 51.1468 69.2147 C 0.0 **** 0.0
20666 C24 76.7272 54.5316 72.9893 C 0.0 **** 0.0
20667 C25 76.4181 54.8014 74.461 C 0.0 **** 0.0
20668 C26 77.489 54.6765 75.3905 C 0.0 **** 0.0
20669 C27 78.8201 54.0439 74.9295 C 0.0 **** 0.0
20670 C28 77.2944 55.014 76.7572 C 0.0 **** 0.0
20671 C29 75.9709 55.1994 77.2138 C 0.0 **** 0.0
20672 C30 74.8802 55.2285 76.3088 C 0.0 **** 0.0
20673 C31 75.1004 55.1029 74.9195 C 0.0 **** 0.0
20674 C32 73.4676 55.4747 76.7492 C 0.0 **** 0.0
20675 C33 73.2664 55.8867 78.1943 C 0.0 **** 0.0
20676 C34 74.2002 55.1098 79.1212 C 0.0 **** 0.0
20677 C35 75.674 55.2674 78.7334 C 0.0 **** 0.0
20678 C36 73.9673 55.0786 74.0615 C 0.0 **** 0.0
20679 C37 72.6415 55.3628 74.5189 C 0.0 **** 0.0
20680 C38 72.4073 55.6251 75.8475 C 0.0 **** 0.0
20681 C39 74.4717 51.4806 69.5665 C 0.0 **** 0.0
20682 C40 73.8765 51.6438 70.9412 C 0.0 **** 0.0
20683 C41 74.8419 52.071 71.8328 C 0.0 **** 0.0
20684 C42 74.571 52.1467 73.2377 C 0.0 **** 0.0
20685 C43 73.2848 51.9367 73.6969 C 0.0 **** 0.0
20686 C44 72.2909 51.5249 72.7873 C 0.0 **** 0.0
20687 C45 72.5772 51.418 71.3826 C 0.0 **** 0.0
20688 C46 71.5602 50.999 70.5155 C 0.0 **** 0.0
20689 C47 70.2354 50.7509 70.9669 C 0.0 **** 0.0
20690 C48 69.9834 50.7976 72.3511 C 0.0 **** 0.0
20691 C49 70.9806 51.2107 73.2891 C 0.0 **** 0.0
20692 C50 70.7463 51.281 74.7021 C 0.0 **** 0.0
20693 C51 71.7719 51.6563 75.5886 C 0.0 **** 0.0
20694 C52 73.0214 52.0224 75.0792 C 0.0 **** 0.0
20695 O53 84.1478 48.4412 66.1182 O 0.0 **** 0.0
20696 C54 85.5123 49.5243 68.3962 C 0.0 **** 0.0
20697 O55 77.0103 50.6717 67.8882 O 0.0 **** 0.0
20698 C56 69.0907 50.4524 69.9819 C 0.0 **** 0.0
20699 C57 69.2634 49.0922 69.3649 C 0.0 **** 0.0
20700 O58 71.6063 55.4565 73.5908 O 0.0 **** 0.0
20701 O59 78.3499 55.1548 77.6918 O 0.0 **** 0.0
20702 O60 69.4982 50.9723 75.2483 O 0.0 **** 0.0
20703 H61 81.4509 48.8146 66.1039 H 0.0 **** 0.0
20704 H62 83.7601 50.8001 69.9857 H 0.0 **** 0.0
20705 H63 79.2368 49.1617 67.8471 H 0.0 **** 0.0
20706 H64 79.4301 50.8912 67.2402 H 0.0 **** 0.0
20707 H65 82.6149 50.1137 71.8002 H 0.0 **** 0.0
20708 H66 82.8669 51.9408 71.6184 H 0.0 **** 0.0
20709 H67 81.4202 50.363 73.892 H 0.0 **** 0.0
20710 H68 82.9819 51.2633 74.0477 H 0.0 **** 0.0
20711 H69 80.9873 52.3755 75.0418 H 0.0 **** 0.0
20712 H70 81.781 53.3733 73.744 H 0.0 **** 0.0
20713 H71 77.3223 55.3595 72.6604 H 0.0 **** 0.0
20714 H72 79.5466 54.8169 74.8544 H 0.0 **** 0.0
20715 H73 73.4731 56.9664 78.24 H 0.0 **** 0.0
20716 H74 72.1961 55.684 78.4782 H 0.0 **** 0.0
20717 H75 74.0536 55.4023 80.1365 H 0.0 **** 0.0
20718 H76 74.0127 54.0477 79.1137 H 0.0 **** 0.0
20719 H77 76.138 56.2028 79.205 H 0.0 **** 0.0
20720 H78 76.2056 54.4472 79.2022 H 0.0 **** 0.0
20721 H79 74.023 55.0149 72.9845 H 0.0 **** 0.0
20722 H80 71.43 56.0158 76.2065 H 0.0 **** 0.0
20723 H81 74.1515 52.2935 68.8846 H 0.0 **** 0.0
20724 H82 74.3769 50.4705 69.1156 H 0.0 **** 0.0
20725 H83 75.3439 52.2573 73.9553 H 0.0 **** 0.0
20726 H84 71.73 50.9162 69.4309 H 0.0 **** 0.0
20727 H85 69.0391 50.4329 72.7025 H 0.0 **** 0.0
20728 H86 71.6673 51.5845 76.6866 H 0.0 **** 0.0
20729 H87 73.7992 52.4148 75.7376 H 0.0 **** 0.0
20730 H88 83.6167 47.8871 65.4606 H 0.0 **** 0.0
20731 H89 85.6607 48.4541 68.7002 H 0.0 **** 0.0
20732 H90 85.8628 50.1899 69.2097 H 0.0 **** 0.0
20733 H91 86.0907 49.8267 67.4679 H 0.0 **** 0.0
20734 H92 76.1614 50.9567 67.4203 H 0.0 **** 0.0
20735 H93 68.1203 50.3721 70.5322 H 0.0 **** 0.0
20736 H94 70.1578 49.1161 68.709 H 0.0 **** 0.0
20737 H95 68.3837 48.7745 68.7283 H 0.0 **** 0.0
20738 H96 69.4049 48.3475 70.1548 H 0.0 **** 0.0
20739 H97 71.7967 55.0889 72.6699 H 0.0 **** 0.0
20740 H98 79.2892 55.057 77.3081 H 0.0 **** 0.0
20741 H99 68.7321 51.2438 74.5979 H 0.0 **** 0.0
20742 H100 75.8777 54.4749 72.2694 H 0.0 **** 0.0
20743 H101 79.0848 53.361 75.7294 H 0.0 **** 0.0
20744 H102 68.9932 51.2454 69.2101 H 0.0 **** 0.0
20745 C1 25.5857 14.8472 4.53538 C 0.0 **** 0.0
20746 C2 24.5516 15.509 5.19267 C 0.0 **** 0.0
20747 C3 23.2957 14.9399 5.18167 C 0.0 **** 0.0
20748 C4 23.015 13.743 4.54453 C 0.0 **** 0.0
20749 C5 24.0703 12.9806 4.03734 C 0.0 **** 0.0
20750 C6 25.3911 13.5444 3.99634 C 0.0 **** 0.0
20751 C7 21.5957 13.4077 4.77246 C 0.0 **** 0.0
20752 C8 21.0449 14.3264 5.65256 C 0.0 **** 0.0
20753 C9 22.0774 15.4257 5.8919 C 0.0 **** 0.0
20754 C10 19.7327 14.1887 6.11524 C 0.0 **** 0.0
20755 C11 18.9448 13.0202 5.71707 C 0.0 **** 0.0
20756 C12 19.4493 12.2395 4.66603 C 0.0 **** 0.0
20757 C13 20.7791 12.3869 4.17861 C 0.0 **** 0.0
20758 C14 21.2833 11.5997 3.02211 C 0.0 **** 0.0
20759 C15 20.1631 11.1759 2.06133 C 0.0 **** 0.0
20760 C16 19.0168 10.4643 2.82231 C 0.0 **** 0.0
20761 C17 18.541 11.2888 4.01709 C 0.0 **** 0.0
20762 C18 17.2387 11.1012 4.53584 C 0.0 **** 0.0
20763 C19 16.7824 11.787 5.67898 C 0.0 **** 0.0
20764 C20 17.6218 12.7865 6.26799 C 0.0 **** 0.0
20765 C21 17.2098 13.7678 7.24265 C 0.0 **** 0.0
20766 C22 17.8838 14.9772 7.35717 C 0.0 **** 0.0
20767 C23 19.1731 15.1724 6.88892 C 0.0 **** 0.0
20768 C24 15.4057 11.4037 6.24342 C 0.0 **** 0.0
20769 C25 14.5375 10.4124 5.47187 C 0.0 **** 0.0
20770 C26 14.9899 9.89089 4.26166 C 0.0 **** 0.0
20771 C27 16.3146 10.2282 3.70502 C 0.0 **** 0.0
20772 C28 14.1709 9.04789 3.50221 C 0.0 **** 0.0
20773 C29 12.9182 8.66028 3.95471 C 0.0 **** 0.0
20774 C30 12.4659 9.11456 5.22949 C 0.0 **** 0.0
20775 C31 13.2848 9.9972 5.98334 C 0.0 **** 0.0
20776 C32 11.188 8.61524 5.77512 C 0.0 **** 0.0
20777 C33 10.341 7.6894 4.97328 C 0.0 **** 0.0
20778 C34 10.5776 7.91193 3.48863 C 0.0 **** 0.0
20779 C35 12.0547 7.72103 3.11142 C 0.0 **** 0.0
20780 C36 12.7315 10.5423 7.2022 C 0.0 **** 0.0
20781 C37 11.5081 10.0938 7.67893 C 0.0 **** 0.0
20782 C38 10.7576 9.1662 7.00106 C 0.0 **** 0.0
20783 C39 17.1161 16.0137 8.06189 C 0.0 **** 0.0
20784 C40 16.024 15.2157 8.56916 C 0.0 **** 0.0
20785 C41 16.0892 13.8905 8.08317 C 0.0 **** 0.0
20786 C42 15.3721 12.9194 8.83009 C 0.0 **** 0.0
20787 C43 14.3931 13.3158 9.7766 C 0.0 **** 0.0
20788 C44 14.1944 14.678 10.0559 C 0.0 **** 0.0
20789 C45 15.0153 15.6428 9.42919 C 0.0 **** 0.0
20790 C46 14.8198 17.0152 9.71128 C 0.0 **** 0.0
20791 C47 13.8299 17.4138 10.6109 C 0.0 **** 0.0
20792 C48 13.0553 16.4725 11.3055 C 0.0 **** 0.0
20793 C49 13.2413 15.1201 11.0694 C 0.0 **** 0.0
20794 C50 12.5626 14.0728 11.7928 C 0.0 **** 0.0
20795 C51 12.7909 12.724 11.5004 C 0.0 **** 0.0
20796 C52 13.6934 12.3758 10.5205 C 0.0 **** 0.0
20797 O53 26.8293 15.4279 4.40051 O 0.0 **** 0.0
20798 C54 26.5396 12.74 3.55422 C 0.0 **** 0.0
20799 O55 19.867 16.3518 7.20217 O 0.0 **** 0.0
20800 C56 13.5707 18.8666 10.8049 C 0.0 **** 0.0
20801 C57 12.7721 19.3979 9.65612 C 0.0 **** 0.0
20802 O58 10.9425 10.6262 8.87251 O 0.0 **** 0.0
20803 O59 14.6294 8.52338 2.23905 O 0.0 **** 0.0
20804 O60 11.6435 14.376 12.8195 O 0.0 **** 0.0
20805 H61 24.7603 16.4838 5.66134 H 0.0 **** 0.0
20806 H62 23.9024 12.0094 3.73025 H 0.0 **** 0.0
20807 H63 21.7288 16.3447 5.38959 H 0.0 **** 0.0
20808 H64 22.34 15.5946 6.94173 H 0.0 **** 0.0
20809 H65 22.0014 12.2318 2.4347 H 0.0 **** 0.0
20810 H66 21.8287 10.708 3.33988 H 0.0 **** 0.0
20811 H67 19.7595 12.0058 1.47923 H 0.0 **** 0.0
20812 H68 20.5462 10.4568 1.28081 H 0.0 **** 0.0
20813 H69 18.2709 10.3012 2.03924 H 0.0 **** 0.0
20814 H70 19.3387 9.45908 3.17187 H 0.0 **** 0.0
20815 H71 15.6184 10.8858 7.17659 H 0.0 **** 0.0
20816 H72 16.8583 9.27225 3.50741 H 0.0 **** 0.0
20817 H73 10.5034 6.62138 5.24876 H 0.0 **** 0.0
20818 H74 9.22931 7.91091 5.21888 H 0.0 **** 0.0
20819 H75 10.0083 7.15946 2.90147 H 0.0 **** 0.0
20820 H76 10.2599 8.94342 3.25571 H 0.0 **** 0.0
20821 H77 12.3727 6.7326 3.32225 H 0.0 **** 0.0
20822 H78 12.1794 7.95379 1.99693 H 0.0 **** 0.0
20823 H79 13.2523 11.2975 7.71598 H 0.0 **** 0.0
20824 H80 9.79263 8.87496 7.46462 H 0.0 **** 0.0
20825 H81 17.6382 16.4398 8.93631 H 0.0 **** 0.0
20826 H82 16.7657 16.7139 7.27937 H 0.0 **** 0.0
20827 H83 15.7184 11.8688 8.89517 H 0.0 **** 0.0
20828 H84 15.4081 17.7662 9.20848 H 0.0 **** 0.0
20829 H85 12.3263 16.842 11.9973 H 0.0 **** 0.0
20830 H86 12.339 11.9313 12.0722 H 0.0 **** 0.0
20831 H87 13.8008 11.2847 10.4255 H 0.0 **** 0.0
20832 H88 26.8512 16.3163 4.90521 H 0.0 **** 0.0
20833 H89 27.282 13.3879 3.04494 H 0.0 **** 0.0
20834 H90 26.264 12.0018 2.77938 H 0.0 **** 0.0
20835 H91 27.0549 12.2076 4.34765 H 0.0 **** 0.0
20836 H92 19.3975 17.0249 7.83121 H 0.0 **** 0.0
20837 H93 13.1218 19.0722 11.8049 H 0.0 **** 0.0
20838 H94 12.6353 20.5062 9.7862 H 0.0 **** 0.0
20839 H95 11.7418 18.9385 9.57611 H 0.0 **** 0.0
20840 H96 13.2951 19.3 8.6476 H 0.0 **** 0.0
20841 H97 11.5819 11.2963 9.35028 H 0.0 **** 0.0
20842 H98 15.4032 9.01421 1.77502 H 0.0 **** 0.0
20843 H99 11.5617 15.3333 13.1778 H 0.0 **** 0.0
20844 H100 14.7789 12.3402 6.33653 H 0.0 **** 0.0
20845 H101 16.0797 10.7996 2.80442 H 0.0 **** 0.0
20846 H102 14.5613 19.4072 10.8559 H 0.0 **** 0.0
20847 C1 12.6909 -0.280753 32.5272 C 0.0 **** 0.0
20848 C2 13.0964 0.723332 33.3762 C 0.0 **** 0.0
20849 C3 13.4608 0.373657 34.7062 C 0.0 **** 0.0
20850 C4 13.3794 -0.873372 35.225 C 0.0 **** 0.0
20851 C5 12.7991 -1.87215 34.4607 C 0.0 **** 0.0
20852 C6 12.5822 -1.6068 33.081 C 0.0 **** 0.0
20853 C7 13.6864 -0.799247 36.634 C 0.0 **** 0.0
20854 C8 14.013 0.494491 36.8822 C 0.0 **** 0.0
20855 C9 13.8805 1.38797 35.6935 C 0.0 **** 0.0
20856 C10 14.2899 0.907061 38.189 C 0.0 **** 0.0
20857 C11 14.1406 0.0399948 39.2876 C 0.0 **** 0.0
20858 C12 13.7613 -1.30495 39.0006 C 0.0 **** 0.0
20859 C13 13.6934 -1.75709 37.6841 C 0.0 **** 0.0
20860 C14 13.766 -3.22453 37.4536 C 0.0 **** 0.0
20861 C15 12.7922 -3.92652 38.3968 C 0.0 **** 0.0
20862 C16 13.1212 -3.65693 39.8667 C 0.0 **** 0.0
20863 C17 13.5089 -2.18713 40.1389 C 0.0 **** 0.0
20864 C18 13.7323 -1.73495 41.459 C 0.0 **** 0.0
20865 C19 14.1509 -0.415195 41.7011 C 0.0 **** 0.0
20866 C20 14.2237 0.507972 40.641 C 0.0 **** 0.0
20867 C21 14.2285 1.86357 40.8088 C 0.0 **** 0.0
20868 C22 14.5249 2.72358 39.7848 C 0.0 **** 0.0
20869 C23 14.625 2.22371 38.475 C 0.0 **** 0.0
20870 C24 14.5062 -0.093174 43.2028 C 0.0 **** 0.0
20871 C25 13.4112 -0.616395 44.1906 C 0.0 **** 0.0
20872 C26 12.813 -1.82275 43.7968 C 0.0 **** 0.0
20873 C27 13.4313 -2.61807 42.6607 C 0.0 **** 0.0
20874 C28 11.7156 -2.30601 44.5199 C 0.0 **** 0.0
20875 C29 11.1788 -1.62241 45.6274 C 0.0 **** 0.0
20876 C30 11.7734 -0.41846 46.0138 C 0.0 **** 0.0
20877 C31 12.8649 0.116532 45.2968 C 0.0 **** 0.0
20878 C32 11.1704 0.365595 47.1457 C 0.0 **** 0.0
20879 C33 9.77262 0.0557366 47.6465 C 0.0 **** 0.0
20880 C34 9.0816 -0.831539 46.6853 C 0.0 **** 0.0
20881 C35 9.87102 -2.08067 46.3484 C 0.0 **** 0.0
20882 C36 13.4399 1.3143 45.7671 C 0.0 **** 0.0
20883 C37 12.9896 1.91548 46.98 C 0.0 **** 0.0
20884 C38 11.8473 1.48364 47.6281 C 0.0 **** 0.0
20885 C39 14.4036 4.14849 40.19 C 0.0 **** 0.0
20886 C40 13.739 3.99056 41.4737 C 0.0 **** 0.0
20887 C41 13.5504 2.65105 41.7522 C 0.0 **** 0.0
20888 C42 12.5896 2.22641 42.6855 C 0.0 **** 0.0
20889 C43 11.9462 3.21989 43.4432 C 0.0 **** 0.0
20890 C44 12.2952 4.5888 43.2657 C 0.0 **** 0.0
20891 C45 13.2085 4.97799 42.2426 C 0.0 **** 0.0
20892 C46 13.6181 6.30566 42.0716 C 0.0 **** 0.0
20893 C47 12.908 7.31045 42.6885 C 0.0 **** 0.0
20894 C48 11.8963 6.95734 43.5938 C 0.0 **** 0.0
20895 C49 11.5931 5.61121 43.9194 C 0.0 **** 0.0
20896 C50 10.5576 5.25975 44.8461 C 0.0 **** 0.0
20897 C51 10.2174 3.92383 45.0227 C 0.0 **** 0.0
20898 C52 10.872 2.92377 44.3462 C 0.0 **** 0.0
20899 O53 12.2949 0.0462075 31.1978 O 0.0 **** 0.0
20900 C54 11.9737 -2.73517 32.2901 C 0.0 **** 0.0
20901 O55 14.8905 3.1378 37.4512 O 0.0 **** 0.0
20902 C56 13.1915 8.76035 42.4188 C 0.0 **** 0.0
20903 C57 13.1601 9.06018 40.9352 C 0.0 **** 0.0
20904 O58 13.6758 2.92739 47.6042 O 0.0 **** 0.0
20905 O59 11.0575 -3.42709 44.0889 O 0.0 **** 0.0
20906 O60 9.89845 6.20672 45.5996 O 0.0 **** 0.0
20907 H61 13.0557 1.77065 33.0819 H 0.0 **** 0.0
20908 H62 12.4453 -2.80282 34.8275 H 0.0 **** 0.0
20909 H63 13.0526 2.10488 35.8608 H 0.0 **** 0.0
20910 H64 14.9269 1.76063 35.4564 H 0.0 **** 0.0
20911 H65 13.6198 -3.6225 36.393 H 0.0 **** 0.0
20912 H66 14.8093 -3.55524 37.7452 H 0.0 **** 0.0
20913 H67 11.7647 -3.65697 38.1004 H 0.0 **** 0.0
20914 H68 12.8562 -5.01465 38.1285 H 0.0 **** 0.0
20915 H69 12.2085 -3.98055 40.4536 H 0.0 **** 0.0
20916 H70 13.9187 -4.27691 40.2659 H 0.0 **** 0.0
20917 H71 15.4386 -0.592789 43.4732 H 0.0 **** 0.0
20918 H72 14.3926 -3.05126 42.9831 H 0.0 **** 0.0
20919 H73 9.90668 -0.427504 48.6082 H 0.0 **** 0.0
20920 H74 9.25072 1.00762 47.7465 H 0.0 **** 0.0
20921 H75 8.08267 -1.11277 47.0753 H 0.0 **** 0.0
20922 H76 8.85874 -0.259361 45.7012 H 0.0 **** 0.0
20923 H77 10.1035 -2.66505 47.2882 H 0.0 **** 0.0
20924 H78 9.31286 -2.75869 45.7412 H 0.0 **** 0.0
20925 H79 14.2774 1.74864 45.2361 H 0.0 **** 0.0
20926 H80 11.4999 2.06573 48.4805 H 0.0 **** 0.0
20927 H81 15.4109 4.61644 40.2925 H 0.0 **** 0.0
20928 H82 13.7517 4.70375 39.4206 H 0.0 **** 0.0
20929 H83 12.2892 1.18297 42.7422 H 0.0 **** 0.0
20930 H84 14.4737 6.5141 41.4165 H 0.0 **** 0.0
20931 H85 11.2931 7.73325 43.97 H 0.0 **** 0.0
20932 H86 9.53175 3.63173 45.8032 H 0.0 **** 0.0
20933 H87 10.488 1.90807 44.4912 H 0.0 **** 0.0
20934 H88 12.1309 1.02781 31.027 H 0.0 **** 0.0
20935 H89 10.8954 -2.52325 32.1627 H 0.0 **** 0.0
20936 H90 12.085 -3.69766 32.8067 H 0.0 **** 0.0
20937 H91 12.3941 -2.87192 31.3154 H 0.0 **** 0.0
20938 H92 15.0611 4.11443 37.7073 H 0.0 **** 0.0
20939 H93 12.3784 9.36881 42.8419 H 0.0 **** 0.0
20940 H94 13.2263 10.1322 40.821 H 0.0 **** 0.0
20941 H95 12.1941 8.71917 40.5066 H 0.0 **** 0.0
20942 H96 14.0586 8.58065 40.4382 H 0.0 **** 0.0
20943 H97 14.4846 3.24935 47.0441 H 0.0 **** 0.0
20944 H98 11.6764 -4.19975 43.9575 H 0.0 **** 0.0
20945 H99 10.4498 6.95964 45.8073 H 0.0 **** 0.0
20946 H100 14.7702 0.967647 43.4355 H 0.0 **** 0.0
20947 H101 12.8169 -3.49295 42.3544 H 0.0 **** 0.0
20948 H102 14.122 9.12011 42.8883 H 0.0 **** 0.0
20949 C1 24.2167 93.0346 -1.99533 C 0.0 **** 0.0
20950 C2 23.0663 92.2939 -1.86749 C 0.0 **** 0.0
20951 C3 23.0129 91.3427 -0.867547 C 0.0 **** 0.0
20952 C4 24.1287 90.9086 -0.171121 C 0.0 **** 0.0
20953 C5 25.3383 91.6157 -0.353217 C 0.0 **** 0.0
20954 C6 25.3903 92.69 -1.29468 C 0.0 **** 0.0
20955 C7 23.7478 89.8525 0.783345 C 0.0 **** 0.0
20956 C8 22.3206 89.7259 0.6539 C 0.0 **** 0.0
20957 C9 21.781 90.6347 -0.404528 C 0.0 **** 0.0
20958 C10 21.5974 88.6856 1.36456 C 0.0 **** 0.0
20959 C11 22.3889 87.7417 2.05829 C 0.0 **** 0.0
20960 C12 23.7613 87.9761 2.30285 C 0.0 **** 0.0
20961 C13 24.4827 88.9707 1.60046 C 0.0 **** 0.0
20962 C14 26.0027 89.1779 1.74915 C 0.0 **** 0.0
20963 C15 26.716 88.0548 2.48356 C 0.0 **** 0.0
20964 C16 25.8903 87.6519 3.72154 C 0.0 **** 0.0
20965 C17 24.5041 87.1785 3.31375 C 0.0 **** 0.0
20966 C18 23.8783 85.9985 3.7526 C 0.0 **** 0.0
20967 C19 22.5383 85.6763 3.38778 C 0.0 **** 0.0
20968 C20 21.7957 86.5131 2.47761 C 0.0 **** 0.0
20969 C21 20.4669 86.2454 2.05288 C 0.0 **** 0.0
20970 C22 19.6153 87.2945 1.71047 C 0.0 **** 0.0
20971 C23 20.2066 88.5222 1.28289 C 0.0 **** 0.0
20972 C24 21.8751 84.6759 4.2686 C 0.0 **** 0.0
20973 C25 22.7684 83.4696 4.54059 C 0.0 **** 0.0
20974 C26 24.102 83.7229 4.9714 C 0.0 **** 0.0
20975 C27 24.6877 85.0908 4.69112 C 0.0 **** 0.0
20976 C28 24.8418 82.7127 5.62907 C 0.0 **** 0.0
20977 C29 24.432 81.3551 5.47219 C 0.0 **** 0.0
20978 C30 23.1807 81.0837 4.88165 C 0.0 **** 0.0
20979 C31 22.312 82.1064 4.43505 C 0.0 **** 0.0
20980 C32 22.6836 79.6775 4.89814 C 0.0 **** 0.0
20981 C33 23.4412 78.5713 5.5565 C 0.0 **** 0.0
20982 C34 24.9281 78.8533 5.54513 C 0.0 **** 0.0
20983 C35 25.2576 80.2492 6.12939 C 0.0 **** 0.0
20984 C36 21.0156 81.7952 4.07411 C 0.0 **** 0.0
20985 C37 20.5098 80.5324 4.28232 C 0.0 **** 0.0
20986 C38 21.3215 79.4844 4.70944 C 0.0 **** 0.0
20987 C39 18.2683 86.8334 1.30138 C 0.0 **** 0.0
20988 C40 18.529 85.3672 1.16813 C 0.0 **** 0.0
20989 C41 19.8013 85.0655 1.64286 C 0.0 **** 0.0
20990 C42 20.365 83.78 1.40739 C 0.0 **** 0.0
20991 C43 19.5904 82.8097 0.700429 C 0.0 **** 0.0
20992 C44 18.2908 83.1157 0.195318 C 0.0 **** 0.0
20993 C45 17.7496 84.4046 0.396037 C 0.0 **** 0.0
20994 C46 16.462 84.7323 -0.124981 C 0.0 **** 0.0
20995 C47 15.6988 83.7295 -0.692047 C 0.0 **** 0.0
20996 C48 16.2199 82.4519 -0.904377 C 0.0 **** 0.0
20997 C49 17.5602 82.1316 -0.465691 C 0.0 **** 0.0
20998 C50 18.0699 80.8052 -0.631735 C 0.0 **** 0.0
20999 C51 19.3229 80.5369 -0.125139 C 0.0 **** 0.0
21000 C52 20.1133 81.5175 0.497711 C 0.0 **** 0.0
21001 O53 24.2086 94.1251 -2.89416 O 0.0 **** 0.0
21002 C54 26.5654 93.6222 -1.37774 C 0.0 **** 0.0
21003 O55 19.4168 89.5382 0.773977 O 0.0 **** 0.0
21004 C56 14.2096 83.9574 -0.966369 C 0.0 **** 0.0
21005 C57 14.0054 84.4747 -2.38312 C 0.0 **** 0.0
21006 O58 19.1154 80.3235 4.18853 O 0.0 **** 0.0
21007 O59 26.0033 83.0266 6.40327 O 0.0 **** 0.0
21008 O60 17.3524 79.7602 -1.20756 O 0.0 **** 0.0
21009 H61 22.2079 92.5051 -2.43598 H 0.0 **** 0.0
21010 H62 26.176 91.3183 0.217076 H 0.0 **** 0.0
21011 H63 21.3646 90.0728 -1.24626 H 0.0 **** 0.0
21012 H64 21.0884 91.4223 -0.0106892 H 0.0 **** 0.0
21013 H65 26.4504 89.1797 0.694646 H 0.0 **** 0.0
21014 H66 26.2078 90.1434 2.26592 H 0.0 **** 0.0
21015 H67 26.8491 87.1823 1.79214 H 0.0 **** 0.0
21016 H68 27.7366 88.4268 2.79711 H 0.0 **** 0.0
21017 H69 26.4185 86.8793 4.32749 H 0.0 **** 0.0
21018 H70 25.8706 88.5437 4.38062 H 0.0 **** 0.0
21019 H71 21.8679 85.1425 5.24733 H 0.0 **** 0.0
21020 H72 24.8127 85.5984 5.66257 H 0.0 **** 0.0
21021 H73 23.0945 78.4653 6.59035 H 0.0 **** 0.0
21022 H74 23.1923 77.5924 5.13266 H 0.0 **** 0.0
21023 H75 25.3084 78.073 6.21764 H 0.0 **** 0.0
21024 H76 25.3814 78.6891 4.52052 H 0.0 **** 0.0
21025 H77 25.1595 80.2731 7.24421 H 0.0 **** 0.0
21026 H78 26.3304 80.4291 5.8964 H 0.0 **** 0.0
21027 H79 20.3628 82.5472 3.78023 H 0.0 **** 0.0
21028 H80 20.8743 78.4919 4.90346 H 0.0 **** 0.0
21029 H81 17.5217 86.9649 2.12932 H 0.0 **** 0.0
21030 H82 17.9269 87.2581 0.335232 H 0.0 **** 0.0
21031 H83 21.3845 83.5512 1.70502 H 0.0 **** 0.0
21032 H84 15.9675 85.6972 0.0664411 H 0.0 **** 0.0
21033 H85 15.6281 81.7146 -1.31508 H 0.0 **** 0.0
21034 H86 19.6831 79.5689 -0.16909 H 0.0 **** 0.0
21035 H87 21.1201 81.2817 0.870211 H 0.0 **** 0.0
21036 H88 23.2881 94.4155 -3.18037 H 0.0 **** 0.0
21037 H89 26.3654 94.4916 -0.66212 H 0.0 **** 0.0
21038 H90 26.6856 94.0967 -2.39173 H 0.0 **** 0.0
21039 H91 27.4909 93.0354 -1.15586 H 0.0 **** 0.0
21040 H92 18.4077 89.4467 0.922217 H 0.0 **** 0.0
21041 H93 13.6362 83.0457 -0.783156 H 0.0 **** 0.0
21042 H94 12.9488 84.5276 -2.58793 H 0.0 **** 0.0
21043 H95 14.4848 83.7971 -3.08911 H 0.0 **** 0.0
21044 H96 14.4405 85.475 -2.51147 H 0.0 **** 0.0
21045 H97 18.6351 81.1481 3.8565 H 0.0 **** 0.0
21046 H98 26.3092 83.9954 6.4206 H 0.0 **** 0.0
21047 H99 16.9126 80.0548 -2.06067 H 0.0 **** 0.0
21048 H100 20.8221 84.4786 4.033 H 0.0 **** 0.0
21049 H101 25.6754 84.9174 4.25432 H 0.0 **** 0.0
21050 H102 13.796 84.737 -0.260777 H 0.0 **** 0.0
21051 C1 106.357 45.8567 56.7827 C 0.0 **** 0.0
21052 C2 106.412 45.045 57.9546 C 0.0 **** 0.0
21053 C3 105.871 45.442 59.1477 C 0.0 **** 0.0
21054 C4 105.124 46.5945 59.227 C 0.0 **** 0.0
21055 C5 104.994 47.4629 58.0946 C 0.0 **** 0.0
21056 C6 105.67 47.0863 56.8861 C 0.0 **** 0.0
21057 C7 104.655 46.711 60.6546 C 0.0 **** 0.0
21058 C8 105.092 45.5887 61.3771 C 0.0 **** 0.0
21059 C9 105.915 44.6793 60.4607 C 0.0 **** 0.0
21060 C10 104.73 45.3732 62.7233 C 0.0 **** 0.0
21061 C11 103.768 46.268 63.3272 C 0.0 **** 0.0
21062 C12 103.356 47.4123 62.5667 C 0.0 **** 0.0
21063 C13 103.884 47.6726 61.308 C 0.0 **** 0.0
21064 C14 103.615 48.9988 60.6115 C 0.0 **** 0.0
21065 C15 103.175 50.0891 61.5961 C 0.0 **** 0.0
21066 C16 101.955 49.5902 62.3725 C 0.0 **** 0.0
21067 C17 102.333 48.3453 63.1595 C 0.0 **** 0.0
21068 C18 101.679 47.8938 64.3425 C 0.0 **** 0.0
21069 C19 101.997 46.6917 64.9722 C 0.0 **** 0.0
21070 C20 103.226 45.988 64.6305 C 0.0 **** 0.0
21071 C21 103.848 44.912 65.3468 C 0.0 **** 0.0
21072 C22 104.755 44.0227 64.7708 C 0.0 **** 0.0
21073 C23 105.249 44.2729 63.4599 C 0.0 **** 0.0
21074 C24 100.936 45.9584 65.7584 C 0.0 **** 0.0
21075 C25 99.8782 46.8711 66.3847 C 0.0 **** 0.0
21076 C26 99.6292 48.1377 65.8152 C 0.0 **** 0.0
21077 C27 100.555 48.7146 64.823 C 0.0 **** 0.0
21078 C28 98.5145 48.8979 66.2274 C 0.0 **** 0.0
21079 C29 97.838 48.5354 67.4171 C 0.0 **** 0.0
21080 C30 98.028 47.2664 67.9405 C 0.0 **** 0.0
21081 C31 98.968 46.3723 67.3837 C 0.0 **** 0.0
21082 C32 97.1827 46.8109 69.0933 C 0.0 **** 0.0
21083 C33 96.1118 47.6996 69.6719 C 0.0 **** 0.0
21084 C34 96.5057 49.2066 69.4913 C 0.0 **** 0.0
21085 C35 96.779 49.459 67.982 C 0.0 **** 0.0
21086 C36 98.9938 45.0571 67.873 C 0.0 **** 0.0
21087 C37 98.158 44.58 68.8841 C 0.0 **** 0.0
21088 C38 97.2735 45.4503 69.5092 C 0.0 **** 0.0
21089 C39 105.271 42.9975 65.7818 C 0.0 **** 0.0
21090 C40 104.604 43.4927 66.9902 C 0.0 **** 0.0
21091 C41 103.832 44.6302 66.695 C 0.0 **** 0.0
21092 C42 103.541 45.5315 67.7037 C 0.0 **** 0.0
21093 C43 103.705 45.1278 69.0359 C 0.0 **** 0.0
21094 C44 104.271 43.9028 69.3586 C 0.0 **** 0.0
21095 C45 104.842 43.088 68.3117 C 0.0 **** 0.0
21096 C46 105.566 41.9116 68.6062 C 0.0 **** 0.0
21097 C47 105.591 41.4528 69.9305 C 0.0 **** 0.0
21098 C48 105.097 42.2213 70.9689 C 0.0 **** 0.0
21099 C49 104.359 43.4348 70.7017 C 0.0 **** 0.0
21100 C50 103.597 44.1312 71.6734 C 0.0 **** 0.0
21101 C51 103.04 45.3545 71.3379 C 0.0 **** 0.0
21102 C52 103.186 45.9109 70.0472 C 0.0 **** 0.0
21103 O53 106.967 45.5292 55.5291 O 0.0 **** 0.0
21104 C54 105.49 48.008 55.6916 C 0.0 **** 0.0
21105 O55 106.303 43.5517 62.9668 O 0.0 **** 0.0
21106 C56 105.954 39.9974 70.2357 C 0.0 **** 0.0
21107 C57 104.892 39.0136 69.7896 C 0.0 **** 0.0
21108 O58 98.1739 43.2527 69.2854 O 0.0 **** 0.0
21109 O59 98.2054 50.1485 65.6703 O 0.0 **** 0.0
21110 O60 103.25 43.5782 72.9103 O 0.0 **** 0.0
21111 H61 106.928 44.0656 57.9681 H 0.0 **** 0.0
21112 H62 104.429 48.3781 58.1835 H 0.0 **** 0.0
21113 H63 106.967 44.587 60.7988 H 0.0 **** 0.0
21114 H64 105.483 43.6773 60.3194 H 0.0 **** 0.0
21115 H65 104.568 49.391 60.1196 H 0.0 **** 0.0
21116 H66 102.836 48.8047 59.8438 H 0.0 **** 0.0
21117 H67 103.998 50.185 62.3124 H 0.0 **** 0.0
21118 H68 102.934 51.0203 61.0501 H 0.0 **** 0.0
21119 H69 101.631 50.3934 63.0336 H 0.0 **** 0.0
21120 H70 101.12 49.3735 61.673 H 0.0 **** 0.0
21121 H71 100.508 45.261 65.0644 H 0.0 **** 0.0
21122 H72 100.0 49.0683 63.9775 H 0.0 **** 0.0
21123 H73 95.1381 47.4762 69.1353 H 0.0 **** 0.0
21124 H74 95.9735 47.4969 70.74 H 0.0 **** 0.0
21125 H75 95.6953 49.8816 69.8652 H 0.0 **** 0.0
21126 H76 97.4167 49.3969 70.0652 H 0.0 **** 0.0
21127 H77 95.8812 49.3921 67.4035 H 0.0 **** 0.0
21128 H78 97.0412 50.5352 67.9006 H 0.0 **** 0.0
21129 H79 99.6806 44.3611 67.4148 H 0.0 **** 0.0
21130 H80 96.6982 45.1187 70.3707 H 0.0 **** 0.0
21131 H81 104.887 41.951 65.5397 H 0.0 **** 0.0
21132 H82 106.37 43.0386 65.9377 H 0.0 **** 0.0
21133 H83 103.225 46.5299 67.5028 H 0.0 **** 0.0
21134 H84 105.84 41.2052 67.8248 H 0.0 **** 0.0
21135 H85 105.24 41.8247 71.9863 H 0.0 **** 0.0
21136 H86 102.376 45.8847 72.0066 H 0.0 **** 0.0
21137 H87 102.605 46.7779 69.8191 H 0.0 **** 0.0
21138 H88 107.425 44.613 55.5046 H 0.0 **** 0.0
21139 H89 106.451 48.3494 55.202 H 0.0 **** 0.0
21140 H90 104.995 48.9036 56.0262 H 0.0 **** 0.0
21141 H91 104.926 47.4935 54.8805 H 0.0 **** 0.0
21142 H92 106.477 42.7268 63.4811 H 0.0 **** 0.0
21143 H93 106.895 39.7261 69.6898 H 0.0 **** 0.0
21144 H94 104.569 39.1842 68.7452 H 0.0 **** 0.0
21145 H95 104.02 39.1391 70.4317 H 0.0 **** 0.0
21146 H96 105.21 37.978 69.9315 H 0.0 **** 0.0
21147 H97 98.8684 42.7152 68.8168 H 0.0 **** 0.0
21148 H98 98.7276 50.4239 64.8349 H 0.0 **** 0.0
21149 H99 103.626 42.6612 73.15 H 0.0 **** 0.0
21150 H100 101.388 45.377 66.5343 H 0.0 **** 0.0
21151 H101 100.955 49.6453 65.2612 H 0.0 **** 0.0
21152 H102 106.152 39.8355 71.3344 H 0.0 **** 0.0
21153 C1 48.3344 73.5797 63.8468 C 0.0 **** 0.0
21154 C2 47.1685 72.9006 64.1924 C 0.0 **** 0.0
21155 C3 45.9954 73.1719 63.4426 C 0.0 **** 0.0
21156 C4 45.9996 74.0521 62.3817 C 0.0 **** 0.0
21157 C5 47.1859 74.5376 61.9191 C 0.0 **** 0.0
21158 C6 48.3488 74.4244 62.6919 C 0.0 **** 0.0
21159 C7 44.6717 73.9718 61.6986 C 0.0 **** 0.0
21160 C8 43.9446 73.0051 62.3878 C 0.0 **** 0.0
21161 C9 44.7063 72.4366 63.5732 C 0.0 **** 0.0
21162 C10 42.6799 72.6068 61.8536 C 0.0 **** 0.0
21163 C11 42.187 73.3025 60.711 C 0.0 **** 0.0
21164 C12 42.926 74.3783 60.1262 C 0.0 **** 0.0
21165 C13 44.1387 74.745 60.6233 C 0.0 **** 0.0
21166 C14 44.8451 75.9788 60.1124 C 0.0 **** 0.0
21167 C15 43.8241 76.9988 59.5751 C 0.0 **** 0.0
21168 C16 43.0722 76.3044 58.4372 C 0.0 **** 0.0
21169 C17 42.3567 75.1116 58.9859 C 0.0 **** 0.0
21170 C18 41.2609 74.5443 58.3082 C 0.0 **** 0.0
21171 C19 40.6054 73.4386 58.8414 C 0.0 **** 0.0
21172 C20 40.9035 73.0081 60.1616 C 0.0 **** 0.0
21173 C21 40.1036 72.1456 60.9374 C 0.0 **** 0.0
21174 C22 40.6682 71.3158 61.9077 C 0.0 **** 0.0
21175 C23 41.9845 71.5124 62.3633 C 0.0 **** 0.0
21176 C24 39.7715 72.6237 57.8828 C 0.0 **** 0.0
21177 C25 40.4185 72.5416 56.5059 C 0.0 **** 0.0
21178 C26 41.0256 73.7184 56.0187 C 0.0 **** 0.0
21179 C27 40.9089 74.9685 56.8982 C 0.0 **** 0.0
21180 C28 41.8777 73.6327 54.9214 C 0.0 **** 0.0
21181 C29 42.2034 72.4069 54.314 C 0.0 **** 0.0
21182 C30 41.4372 71.2727 54.67 C 0.0 **** 0.0
21183 C31 40.4868 71.3716 55.7203 C 0.0 **** 0.0
21184 C32 41.7162 69.9485 54.0574 C 0.0 **** 0.0
21185 C33 42.9572 69.7896 53.2723 C 0.0 **** 0.0
21186 C34 43.2735 71.0092 52.4359 C 0.0 **** 0.0
21187 C35 43.3479 72.2691 53.2997 C 0.0 **** 0.0
21188 C36 39.6434 70.2202 56.0019 C 0.0 **** 0.0
21189 C37 39.8911 68.9868 55.3221 C 0.0 **** 0.0
21190 C38 40.9034 68.8772 54.3702 C 0.0 **** 0.0
21191 C39 39.6229 70.3993 62.5138 C 0.0 **** 0.0
21192 C40 38.4556 70.9118 61.8134 C 0.0 **** 0.0
21193 C41 38.7516 72.0191 61.0399 C 0.0 **** 0.0
21194 C42 37.753 72.7345 60.3659 C 0.0 **** 0.0
21195 C43 36.5098 72.1925 60.2192 C 0.0 **** 0.0
21196 C44 36.183 71.0378 60.9836 C 0.0 **** 0.0
21197 C45 37.1661 70.4206 61.8403 C 0.0 **** 0.0
21198 C46 36.8386 69.4 62.6663 C 0.0 **** 0.0
21199 C47 35.5271 68.9547 62.7291 C 0.0 **** 0.0
21200 C48 34.5272 69.4839 61.8698 C 0.0 **** 0.0
21201 C49 34.8632 70.5475 60.976 C 0.0 **** 0.0
21202 C50 33.9155 71.1096 60.0452 C 0.0 **** 0.0
21203 C51 34.3149 72.1566 59.1831 C 0.0 **** 0.0
21204 C52 35.5899 72.7302 59.3115 C 0.0 **** 0.0
21205 O53 49.5441 73.3074 64.5021 O 0.0 **** 0.0
21206 C54 49.6117 75.0246 62.134 C 0.0 **** 0.0
21207 O55 42.5836 70.6998 63.3013 O 0.0 **** 0.0
21208 C56 35.2181 67.9848 63.8692 C 0.0 **** 0.0
21209 C57 33.7538 67.8517 64.196 C 0.0 **** 0.0
21210 O58 39.1112 67.8641 55.6584 O 0.0 **** 0.0
21211 O59 42.4687 74.8184 54.5233 O 0.0 **** 0.0
21212 O60 32.5358 70.8659 60.0549 O 0.0 **** 0.0
21213 H61 47.1048 72.1588 64.9769 H 0.0 **** 0.0
21214 H62 47.2563 75.0404 60.9822 H 0.0 **** 0.0
21215 H63 44.2502 72.6818 64.5411 H 0.0 **** 0.0
21216 H64 44.91 71.3632 63.3742 H 0.0 **** 0.0
21217 H65 45.3659 76.4863 60.9678 H 0.0 **** 0.0
21218 H66 45.5925 75.706 59.3231 H 0.0 **** 0.0
21219 H67 43.1297 77.3174 60.3715 H 0.0 **** 0.0
21220 H68 44.3934 77.8682 59.1317 H 0.0 **** 0.0
21221 H69 42.3178 77.021 58.0864 H 0.0 **** 0.0
21222 H70 43.813 75.9358 57.6491 H 0.0 **** 0.0
21223 H71 38.7898 73.1482 57.6926 H 0.0 **** 0.0
21224 H72 41.4645 75.8347 56.4417 H 0.0 **** 0.0
21225 H73 43.7832 69.516 53.9787 H 0.0 **** 0.0
21226 H74 42.8423 68.9236 52.5785 H 0.0 **** 0.0
21227 H75 44.2582 70.8557 52.009 H 0.0 **** 0.0
21228 H76 42.5306 71.1211 51.6239 H 0.0 **** 0.0
21229 H77 44.3264 72.3595 53.8225 H 0.0 **** 0.0
21230 H78 43.3181 73.1308 52.5477 H 0.0 **** 0.0
21231 H79 38.8888 70.2173 56.7893 H 0.0 **** 0.0
21232 H80 41.0255 67.9316 53.8618 H 0.0 **** 0.0
21233 H81 39.8483 69.3427 62.2863 H 0.0 **** 0.0
21234 H82 39.5351 70.5575 63.5849 H 0.0 **** 0.0
21235 H83 38.0759 73.5723 59.8366 H 0.0 **** 0.0
21236 H84 37.5791 68.8968 63.29 H 0.0 **** 0.0
21237 H85 33.5255 69.0522 61.827 H 0.0 **** 0.0
21238 H86 33.6011 72.6039 58.4569 H 0.0 **** 0.0
21239 H87 35.9229 73.4802 58.6105 H 0.0 **** 0.0
21240 H88 49.5074 72.6039 65.2584 H 0.0 **** 0.0
21241 H89 49.4649 76.0888 61.8465 H 0.0 **** 0.0
21242 H90 49.9491 74.4277 61.2647 H 0.0 **** 0.0
21243 H91 50.4531 75.0645 62.8961 H 0.0 **** 0.0
21244 H92 42.1813 69.8133 63.3384 H 0.0 **** 0.0
21245 H93 35.5882 66.9817 63.6711 H 0.0 **** 0.0
21246 H94 33.6086 67.1999 65.1124 H 0.0 **** 0.0
21247 H95 33.2109 67.308 63.4003 H 0.0 **** 0.0
21248 H96 33.324 68.9114 64.2818 H 0.0 **** 0.0
21249 H97 38.3561 68.0899 56.248 H 0.0 **** 0.0
21250 H98 43.3714 74.7616 54.1195 H 0.0 **** 0.0
21251 H99 32.2196 70.4544 60.9321 H 0.0 **** 0.0
21252 H100 39.6331 71.5889 58.334 H 0.0 **** 0.0
21253 H101 39.8231 75.3054 56.9111 H 0.0 **** 0.0
21254 H102 35.6303 68.3658 64.8524 H 0.0 **** 0.0
21255 C1 -0.0901776 91.4836 39.1915 C 0.0 **** 0.0
21256 C2 0.904143 92.2375 38.5294 C 0.0 **** 0.0
21257 C3 0.922505 93.5802 38.7518 C 0.0 **** 0.0
21258 C4 0.0222073 94.1976 39.5921 C 0.0 **** 0.0
21259 C5 -0.927026 93.4604 40.299 C 0.0 **** 0.0
21260 C6 -0.939136 92.0674 40.1649 C 0.0 **** 0.0
21261 C7 0.456087 95.581 39.755 C 0.0 **** 0.0
21262 C8 1.72225 95.6822 39.1963 C 0.0 **** 0.0
21263 C9 2.04847 94.5012 38.3714 C 0.0 **** 0.0
21264 C10 2.46301 96.8951 39.2766 C 0.0 **** 0.0
21265 C11 1.922 97.9502 40.1264 C 0.0 **** 0.0
21266 C12 0.674599 97.7336 40.8162 C 0.0 **** 0.0
21267 C13 -0.0894717 96.5479 40.6166 C 0.0 **** 0.0
21268 C14 -1.45592 96.4476 41.2252 C 0.0 **** 0.0
21269 C15 -2.03894 97.8136 41.5778 C 0.0 **** 0.0
21270 C16 -1.0643 98.6146 42.4731 C 0.0 **** 0.0
21271 C17 0.257229 98.7738 41.7794 C 0.0 **** 0.0
21272 C18 1.16009 99.7742 42.1153 C 0.0 **** 0.0
21273 C19 2.28097 100.099 41.2695 C 0.0 **** 0.0
21274 C20 2.51102 99.2344 40.1241 C 0.0 **** 0.0
21275 C21 3.45015 99.4932 39.0457 C 0.0 **** 0.0
21276 C22 4.03198 98.4227 38.3093 C 0.0 **** 0.0
21277 C23 3.64098 97.1117 38.4794 C 0.0 **** 0.0
21278 C24 3.06116 101.353 41.5529 C 0.0 **** 0.0
21279 C25 3.10298 101.836 43.0081 C 0.0 **** 0.0
21280 C26 2.05351 101.427 43.8718 C 0.0 **** 0.0
21281 C27 0.885294 100.617 43.3476 C 0.0 **** 0.0
21282 C28 2.07375 101.769 45.2489 C 0.0 **** 0.0
21283 C29 3.0367 102.688 45.7445 C 0.0 **** 0.0
21284 C30 3.94541 103.253 44.844 C 0.0 **** 0.0
21285 C31 4.06251 102.81 43.4836 C 0.0 **** 0.0
21286 C32 4.70372 104.508 45.2187 C 0.0 **** 0.0
21287 C33 4.2895 105.24 46.4957 C 0.0 **** 0.0
21288 C34 3.0911 104.658 47.2697 C 0.0 **** 0.0
21289 C35 3.13993 103.116 47.2223 C 0.0 **** 0.0
21290 C36 5.16123 103.266 42.7218 C 0.0 **** 0.0
21291 C37 5.99469 104.307 43.1964 C 0.0 **** 0.0
21292 C38 5.62886 105.068 44.332 C 0.0 **** 0.0
21293 C39 5.15854 98.963 37.4632 C 0.0 **** 0.0
21294 C40 5.12413 100.433 37.7796 C 0.0 **** 0.0
21295 C41 4.06171 100.684 38.6358 C 0.0 **** 0.0
21296 C42 3.55565 101.943 38.6982 C 0.0 **** 0.0
21297 C43 4.35444 103.061 38.3569 C 0.0 **** 0.0
21298 C44 5.50278 102.848 37.5866 C 0.0 **** 0.0
21299 C45 5.82909 101.505 37.1954 C 0.0 **** 0.0
21300 C46 6.8571 101.297 36.3276 C 0.0 **** 0.0
21301 C47 7.65924 102.405 35.894 C 0.0 **** 0.0
21302 C48 7.31438 103.717 36.2642 C 0.0 **** 0.0
21303 C49 6.27117 103.943 37.1429 C 0.0 **** 0.0
21304 C50 5.88722 105.229 37.5235 C 0.0 **** 0.0
21305 C51 4.69654 105.413 38.2009 C 0.0 **** 0.0
21306 C52 3.90761 104.34 38.5839 C 0.0 **** 0.0
21307 O53 -0.111265 90.0916 38.943 O 0.0 **** 0.0
21308 C54 -1.83011 91.2559 41.1172 C 0.0 **** 0.0
21309 O55 4.26316 96.0929 37.7249 O 0.0 **** 0.0
21310 C56 8.89754 102.237 35.0791 C 0.0 **** 0.0
21311 C57 9.56395 100.838 35.1652 C 0.0 **** 0.0
21312 O58 7.17795 104.629 42.5327 O 0.0 **** 0.0
21313 O59 1.08099 101.153 46.0455 O 0.0 **** 0.0
21314 O60 6.7259 106.327 37.2998 O 0.0 **** 0.0
21315 H61 1.64736 91.7876 37.8659 H 0.0 **** 0.0
21316 H62 -1.48916 93.9139 41.0744 H 0.0 **** 0.0
21317 H63 2.04277 94.7982 37.3062 H 0.0 **** 0.0
21318 H64 3.01354 94.0497 38.7601 H 0.0 **** 0.0
21319 H65 -2.16033 96.0348 40.5075 H 0.0 **** 0.0
21320 H66 -1.42681 95.7971 42.1073 H 0.0 **** 0.0
21321 H67 -2.24665 98.3985 40.6467 H 0.0 **** 0.0
21322 H68 -3.02767 97.7036 42.1101 H 0.0 **** 0.0
21323 H69 -1.56487 99.5902 42.6478 H 0.0 **** 0.0
21324 H70 -0.912507 98.0763 43.4327 H 0.0 **** 0.0
21325 H71 4.12437 101.136 41.2158 H 0.0 **** 0.0
21326 H72 0.678854 99.8721 44.144 H 0.0 **** 0.0
21327 H73 5.17118 105.278 47.1341 H 0.0 **** 0.0
21328 H74 4.02823 106.308 46.1408 H 0.0 **** 0.0
21329 H75 3.19265 104.981 48.3008 H 0.0 **** 0.0
21330 H76 2.11966 105.079 46.8827 H 0.0 **** 0.0
21331 H77 4.12138 102.749 47.6641 H 0.0 **** 0.0
21332 H78 2.37639 102.697 47.8374 H 0.0 **** 0.0
21333 H79 5.45532 102.719 41.8331 H 0.0 **** 0.0
21334 H80 6.2088 105.918 44.6508 H 0.0 **** 0.0
21335 H81 6.12925 98.5351 37.7895 H 0.0 **** 0.0
21336 H82 4.99308 98.8042 36.3556 H 0.0 **** 0.0
21337 H83 2.50801 102.014 38.9495 H 0.0 **** 0.0
21338 H84 7.17231 100.278 36.1568 H 0.0 **** 0.0
21339 H85 8.01284 104.509 35.9086 H 0.0 **** 0.0
21340 H86 4.29388 106.379 38.3833 H 0.0 **** 0.0
21341 H87 3.02181 104.606 39.1065 H 0.0 **** 0.0
21342 H88 -0.839573 89.6241 39.472 H 0.0 **** 0.0
21343 H89 -1.24603 90.4758 41.6382 H 0.0 **** 0.0
21344 H90 -2.73443 90.8567 40.6331 H 0.0 **** 0.0
21345 H91 -2.19689 91.9056 41.912 H 0.0 **** 0.0
21346 H92 4.9578 96.4331 37.0632 H 0.0 **** 0.0
21347 H93 8.7253 102.529 34.0472 H 0.0 **** 0.0
21348 H94 10.5588 100.949 34.7258 H 0.0 **** 0.0
21349 H95 8.99882 100.123 34.5245 H 0.0 **** 0.0
21350 H96 9.6528 100.528 36.2305 H 0.0 **** 0.0
21351 H97 7.42856 104.009 41.7269 H 0.0 **** 0.0
21352 H98 1.29363 101.121 47.0484 H 0.0 **** 0.0
21353 H99 7.68251 106.022 37.3507 H 0.0 **** 0.0
21354 H100 2.52795 102.195 41.0319 H 0.0 **** 0.0
21355 H101 0.00396874 101.312 43.1645 H 0.0 **** 0.0
21356 H102 9.61656 102.963 35.4539 H 0.0 **** 0.0
21357 C1 88.6205 72.0226 43.0244 C 0.0 **** 0.0
21358 C2 89.859 72.6814 42.7055 C 0.0 **** 0.0
21359 C3 90.265 72.6865 41.3703 C 0.0 **** 0.0
21360 C4 89.5182 72.0525 40.3682 C 0.0 **** 0.0
21361 C5 88.2371 71.5413 40.6476 C 0.0 **** 0.0
21362 C6 87.7503 71.6382 41.9649 C 0.0 **** 0.0
21363 C7 90.2874 72.1073 39.112 C 0.0 **** 0.0
21364 C8 91.358 72.9791 39.2943 C 0.0 **** 0.0
21365 C9 91.4896 73.3338 40.7708 C 0.0 **** 0.0
21366 C10 92.2425 73.2694 38.2564 C 0.0 **** 0.0
21367 C11 92.0491 72.6016 36.9893 C 0.0 **** 0.0
21368 C12 91.0237 71.6237 36.846 C 0.0 **** 0.0
21369 C13 90.1486 71.3348 37.9382 C 0.0 **** 0.0
21370 C14 89.169 70.2271 37.7974 C 0.0 **** 0.0
21371 C15 89.7517 69.0864 36.9619 C 0.0 **** 0.0
21372 C16 90.0992 69.6154 35.5231 C 0.0 **** 0.0
21373 C17 90.9956 70.8242 35.5698 C 0.0 **** 0.0
21374 C18 91.702 71.3424 34.4447 C 0.0 **** 0.0
21375 C19 92.6472 72.362 34.6157 C 0.0 **** 0.0
21376 C20 92.9566 72.8161 35.9121 C 0.0 **** 0.0
21377 C21 94.113 73.565 36.2011 C 0.0 **** 0.0
21378 C22 94.2285 74.3326 37.3752 C 0.0 **** 0.0
21379 C23 93.2641 74.2589 38.3856 C 0.0 **** 0.0
21380 C24 93.0126 73.1916 33.3828 C 0.0 **** 0.0
21381 C25 92.0385 73.1086 32.2077 C 0.0 **** 0.0
21382 C26 91.3 71.9056 32.0568 C 0.0 **** 0.0
21383 C27 91.5113 70.787 33.0127 C 0.0 **** 0.0
21384 C28 90.4881 71.6488 30.9214 C 0.0 **** 0.0
21385 C29 90.3529 72.6767 29.9389 C 0.0 **** 0.0
21386 C30 91.0742 73.8751 30.1035 C 0.0 **** 0.0
21387 C31 91.9662 74.0767 31.1673 C 0.0 **** 0.0
21388 C32 90.9933 74.8995 28.9966 C 0.0 **** 0.0
21389 C33 90.0052 74.7641 27.8921 C 0.0 **** 0.0
21390 C34 89.8448 73.2993 27.514 C 0.0 **** 0.0
21391 C35 89.4417 72.4533 28.7434 C 0.0 **** 0.0
21392 C36 92.7791 75.2404 31.1659 C 0.0 **** 0.0
21393 C37 92.7339 76.1737 30.1076 C 0.0 **** 0.0
21394 C38 91.8699 75.9895 29.0372 C 0.0 **** 0.0
21395 C39 95.5984 74.9624 37.494 C 0.0 **** 0.0
21396 C40 96.2821 74.3449 36.3503 C 0.0 **** 0.0
21397 C41 95.3926 73.5127 35.6131 C 0.0 **** 0.0
21398 C42 95.9001 72.5132 34.8094 C 0.0 **** 0.0
21399 C43 97.2694 72.4517 34.5678 C 0.0 **** 0.0
21400 C44 98.156 73.3944 35.1683 C 0.0 **** 0.0
21401 C45 97.6769 74.3383 36.1225 C 0.0 **** 0.0
21402 C46 98.6109 75.1437 36.8465 C 0.0 **** 0.0
21403 C47 99.9595 75.0683 36.6071 C 0.0 **** 0.0
21404 C48 100.39 74.153 35.6511 C 0.0 **** 0.0
21405 C49 99.5382 73.2928 34.9246 C 0.0 **** 0.0
21406 C50 100.02 72.3061 34.0125 C 0.0 **** 0.0
21407 C51 99.1318 71.3547 33.5381 C 0.0 **** 0.0
21408 C52 97.7805 71.3845 33.8688 C 0.0 **** 0.0
21409 O53 88.1688 71.7922 44.3437 O 0.0 **** 0.0
21410 C54 86.2768 71.4132 42.2155 C 0.0 **** 0.0
21411 O55 93.213 75.2171 39.4139 O 0.0 **** 0.0
21412 C56 100.967 75.8079 37.4716 C 0.0 **** 0.0
21413 C57 101.12 77.2835 37.194 C 0.0 **** 0.0
21414 O58 93.4842 77.3579 30.1914 O 0.0 **** 0.0
21415 O59 89.7964 70.428 30.88 O 0.0 **** 0.0
21416 O60 101.384 72.1605 33.6701 O 0.0 **** 0.0
21417 H61 90.543 73.0636 43.4914 H 0.0 **** 0.0
21418 H62 87.5557 71.2576 39.8948 H 0.0 **** 0.0
21419 H63 92.3132 72.7908 41.2408 H 0.0 **** 0.0
21420 H64 91.5532 74.4413 41.0065 H 0.0 **** 0.0
21421 H65 88.8238 69.8387 38.7887 H 0.0 **** 0.0
21422 H66 88.2667 70.6539 37.2247 H 0.0 **** 0.0
21423 H67 90.6584 68.6684 37.3674 H 0.0 **** 0.0
21424 H68 89.0303 68.2725 36.8439 H 0.0 **** 0.0
21425 H69 90.5138 68.8206 34.9135 H 0.0 **** 0.0
21426 H70 89.1893 69.8576 35.0227 H 0.0 **** 0.0
21427 H71 93.0125 74.2621 33.6916 H 0.0 **** 0.0
21428 H72 90.6811 70.0842 32.9651 H 0.0 **** 0.0
21429 H73 89.0458 75.0632 28.2999 H 0.0 **** 0.0
21430 H74 90.2336 75.3776 27.0504 H 0.0 **** 0.0
21431 H75 88.994 73.1328 26.7637 H 0.0 **** 0.0
21432 H76 90.7743 72.8719 27.1097 H 0.0 **** 0.0
21433 H77 88.3742 72.6412 28.9966 H 0.0 **** 0.0
21434 H78 89.4914 71.4139 28.4346 H 0.0 **** 0.0
21435 H79 93.5238 75.4207 31.9334 H 0.0 **** 0.0
21436 H80 91.8422 76.7344 28.2409 H 0.0 **** 0.0
21437 H81 95.5632 76.0556 37.3953 H 0.0 **** 0.0
21438 H82 96.1006 74.6523 38.4945 H 0.0 **** 0.0
21439 H83 95.2803 71.7032 34.3947 H 0.0 **** 0.0
21440 H84 98.2561 75.8341 37.5749 H 0.0 **** 0.0
21441 H85 101.44 74.1561 35.5127 H 0.0 **** 0.0
21442 H86 99.5414 70.4806 33.0359 H 0.0 **** 0.0
21443 H87 97.158 70.5683 33.5221 H 0.0 **** 0.0
21444 H88 88.6932 72.3263 45.0255 H 0.0 **** 0.0
21445 H89 86.1339 70.33 42.109 H 0.0 **** 0.0
21446 H90 85.6711 71.9956 41.4995 H 0.0 **** 0.0
21447 H91 86.0092 71.6904 43.2532 H 0.0 **** 0.0
21448 H92 94.1182 75.648 39.6512 H 0.0 **** 0.0
21449 H93 100.683 75.7504 38.5069 H 0.0 **** 0.0
21450 H94 101.816 77.7555 37.9034 H 0.0 **** 0.0
21451 H95 100.16 77.8081 37.3447 H 0.0 **** 0.0
21452 H96 101.42 77.487 36.1353 H 0.0 **** 0.0
21453 H97 94.0138 77.4553 31.0472 H 0.0 **** 0.0
21454 H98 88.9731 70.3776 30.2558 H 0.0 **** 0.0
21455 H99 101.997 72.7273 34.1991 H 0.0 **** 0.0
21456 H100 94.0302 72.911 33.0794 H 0.0 **** 0.0
21457 H101 92.4705 70.2508 32.6784 H 0.0 **** 0.0
21458 H102 101.985 75.3275 37.4726 H 0.0 **** 0.0
21459 C1 67.8217 63.008 30.876 C 0.0 **** 0.0
21460 C2 66.9625 62.4475 31.8507 C 0.0 **** 0.0
21461 C3 66.486 63.2453 32.9217 C 0.0 **** 0.0
21462 C4 66.9443 64.5586 33.0944 C 0.0 **** 0.0
21463 C5 67.6866 65.1639 32.0823 C 0.0 **** 0.0
21464 C6 68.1132 64.4019 30.9689 C 0.0 **** 0.0
21465 C7 66.3906 65.0228 34.3596 C 0.0 **** 0.0
21466 C8 65.6253 63.993 34.9328 C 0.0 **** 0.0
21467 C9 65.6306 62.7661 34.0416 C 0.0 **** 0.0
21468 C10 65.1124 64.1684 36.2615 C 0.0 **** 0.0
21469 C11 65.4449 65.3489 36.9898 C 0.0 **** 0.0
21470 C12 66.1584 66.3925 36.3512 C 0.0 **** 0.0
21471 C13 66.7253 66.194 35.0557 C 0.0 **** 0.0
21472 C14 67.5635 67.2647 34.4575 C 0.0 **** 0.0
21473 C15 67.9455 68.3707 35.4126 C 0.0 **** 0.0
21474 C16 66.7484 68.8587 36.2215 C 0.0 **** 0.0
21475 C17 66.2385 67.7194 37.0273 C 0.0 **** 0.0
21476 C18 65.6832 67.8617 38.3148 C 0.0 **** 0.0
21477 C19 64.9983 66.7923 38.9322 C 0.0 **** 0.0
21478 C20 64.9937 65.5018 38.3379 C 0.0 **** 0.0
21479 C21 64.4564 64.384 38.9754 C 0.0 **** 0.0
21480 C22 64.0785 63.2719 38.2385 C 0.0 **** 0.0
21481 C23 64.3399 63.1528 36.8916 C 0.0 **** 0.0
21482 C24 63.7815 67.2487 39.7062 C 0.0 **** 0.0
21483 C25 64.1372 68.2662 40.7979 C 0.0 **** 0.0
21484 C26 64.9459 69.3425 40.3495 C 0.0 **** 0.0
21485 C27 65.6096 69.2426 38.9791 C 0.0 **** 0.0
21486 C28 65.055 70.4699 41.1694 C 0.0 **** 0.0
21487 C29 64.4993 70.4931 42.451 C 0.0 **** 0.0
21488 C30 63.8652 69.3359 42.9254 C 0.0 **** 0.0
21489 C31 63.6094 68.2479 42.1119 C 0.0 **** 0.0
21490 C32 63.3706 69.3173 44.3387 C 0.0 **** 0.0
21491 C33 63.9184 70.3541 45.3579 C 0.0 **** 0.0
21492 C34 65.0025 71.2377 44.7733 C 0.0 **** 0.0
21493 C35 64.6037 71.6694 43.3622 C 0.0 **** 0.0
21494 C36 62.6814 67.2322 42.6105 C 0.0 **** 0.0
21495 C37 62.1871 67.2442 43.9191 C 0.0 **** 0.0
21496 C38 62.5798 68.2392 44.7888 C 0.0 **** 0.0
21497 C39 63.3429 62.3426 39.1011 C 0.0 **** 0.0
21498 C40 63.5281 63.023 40.4189 C 0.0 **** 0.0
21499 C41 64.2313 64.1923 40.2888 C 0.0 **** 0.0
21500 C42 64.78 64.9031 41.4016 C 0.0 **** 0.0
21501 C43 64.4002 64.4203 42.6589 C 0.0 **** 0.0
21502 C44 63.5252 63.3176 42.8064 C 0.0 **** 0.0
21503 C45 63.0842 62.5815 41.6659 C 0.0 **** 0.0
21504 C46 62.29 61.4549 41.8031 C 0.0 **** 0.0
21505 C47 61.8567 61.0626 43.071 C 0.0 **** 0.0
21506 C48 62.3179 61.7347 44.2031 C 0.0 **** 0.0
21507 C49 63.1444 62.873 44.1038 C 0.0 **** 0.0
21508 C50 63.7147 63.493 45.2436 C 0.0 **** 0.0
21509 C51 64.6069 64.5306 45.0685 C 0.0 **** 0.0
21510 C52 64.9437 65.0085 43.8088 C 0.0 **** 0.0
21511 O53 68.3557 62.2699 29.7933 O 0.0 **** 0.0
21512 C54 68.7023 65.1135 29.8029 C 0.0 **** 0.0
21513 O55 63.9672 62.0367 36.1259 O 0.0 **** 0.0
21514 C56 60.9625 59.8784 43.1885 C 0.0 **** 0.0
21515 C57 59.5843 60.3146 43.686 C 0.0 **** 0.0
21516 O58 61.3185 66.2451 44.3746 O 0.0 **** 0.0
21517 O59 65.7223 71.6482 40.7474 O 0.0 **** 0.0
21518 O60 63.4772 63.0894 46.577 O 0.0 **** 0.0
21519 H61 66.6248 61.4562 31.741 H 0.0 **** 0.0
21520 H62 67.8947 66.2129 32.0184 H 0.0 **** 0.0
21521 H63 66.0694 61.8969 34.5602 H 0.0 **** 0.0
21522 H64 64.5987 62.4795 33.6657 H 0.0 **** 0.0
21523 H65 68.5339 66.7945 34.1142 H 0.0 **** 0.0
21524 H66 66.996 67.6619 33.607 H 0.0 **** 0.0
21525 H67 68.738 68.0885 36.1248 H 0.0 **** 0.0
21526 H68 68.3825 69.2129 34.8269 H 0.0 **** 0.0
21527 H69 67.0732 69.7176 36.8292 H 0.0 **** 0.0
21528 H70 65.9475 69.2231 35.5198 H 0.0 **** 0.0
21529 H71 63.1797 67.8194 38.9787 H 0.0 **** 0.0
21530 H72 65.0092 69.9305 38.2948 H 0.0 **** 0.0
21531 H73 63.1257 70.9758 45.7064 H 0.0 **** 0.0
21532 H74 64.3635 69.8093 46.203 H 0.0 **** 0.0
21533 H75 65.1472 72.1417 45.3776 H 0.0 **** 0.0
21534 H76 65.9649 70.7543 44.6562 H 0.0 **** 0.0
21535 H77 63.5888 72.2077 43.3776 H 0.0 **** 0.0
21536 H78 65.3154 72.4225 42.9744 H 0.0 **** 0.0
21537 H79 62.3867 66.4232 41.996 H 0.0 **** 0.0
21538 H80 62.1568 68.2141 45.759 H 0.0 **** 0.0
21539 H81 62.2998 62.3034 38.746 H 0.0 **** 0.0
21540 H82 63.8328 61.3418 39.1044 H 0.0 **** 0.0
21541 H83 65.4559 65.7499 41.3006 H 0.0 **** 0.0
21542 H84 61.9696 60.8696 40.918 H 0.0 **** 0.0
21543 H85 61.908 61.4987 45.1825 H 0.0 **** 0.0
21544 H86 65.0588 65.0474 45.9248 H 0.0 **** 0.0
21545 H87 65.573 65.8715 43.756 H 0.0 **** 0.0
21546 H88 68.0913 61.274 29.8483 H 0.0 **** 0.0
21547 H89 67.9201 65.7594 29.321 H 0.0 **** 0.0
21548 H90 69.1757 64.4697 29.0138 H 0.0 **** 0.0
21549 H91 69.5069 65.8263 30.188 H 0.0 **** 0.0
21550 H92 63.5833 61.2311 36.5745 H 0.0 **** 0.0
21551 H93 60.9328 59.2658 42.2495 H 0.0 **** 0.0
21552 H94 59.132 61.1172 43.0514 H 0.0 **** 0.0
21553 H95 59.6079 60.7507 44.7194 H 0.0 **** 0.0
21554 H96 58.9248 59.4273 43.6113 H 0.0 **** 0.0
21555 H97 61.1793 65.511 43.7112 H 0.0 **** 0.0
21556 H98 66.0313 71.6526 39.7825 H 0.0 **** 0.0
21557 H99 62.5917 62.6195 46.7226 H 0.0 **** 0.0
21558 H100 63.1343 66.4267 40.0138 H 0.0 **** 0.0
21559 H101 66.617 69.5149 39.1746 H 0.0 **** 0.0
21560 H102 61.3899 59.1681 43.9023 H 0.0 **** 0.0
21561 C1 93.076 49.6318 18.9836 C 0.0 **** 0.0
21562 C2 92.7347 49.7699 17.6113 C 0.0 **** 0.0
21563 C3 92.3383 51.0116 17.1463 C 0.0 **** 0.0
21564 C4 92.1014 52.0832 18.0039 C 0.0 **** 0.0
21565 C5 92.3475 51.9388 19.3939 C 0.0 **** 0.0
21566 C6 92.8791 50.7414 19.8758 C 0.0 **** 0.0
21567 C7 91.4914 53.1769 17.1981 C 0.0 **** 0.0
21568 C8 91.38 52.7281 15.8756 C 0.0 **** 0.0
21569 C9 92.0972 51.393 15.7288 C 0.0 **** 0.0
21570 C10 90.6903 53.5022 14.8666 C 0.0 **** 0.0
21571 C11 90.3398 54.8325 15.2136 C 0.0 **** 0.0
21572 C12 90.525 55.307 16.5216 C 0.0 **** 0.0
21573 C13 91.0404 54.4555 17.5583 C 0.0 **** 0.0
21574 C14 91.1272 55.009 18.999 C 0.0 **** 0.0
21575 C15 90.3187 56.3179 19.1941 C 0.0 **** 0.0
21576 C16 90.6625 57.3095 18.1192 C 0.0 **** 0.0
21577 C17 90.3746 56.7536 16.7775 C 0.0 **** 0.0
21578 C18 90.2878 57.6321 15.6358 C 0.0 **** 0.0
21579 C19 90.0393 57.1244 14.355 C 0.0 **** 0.0
21580 C20 89.7978 55.6974 14.207 C 0.0 **** 0.0
21581 C21 89.1801 55.0926 13.1185 C 0.0 **** 0.0
21582 C22 89.4845 53.7924 12.7943 C 0.0 **** 0.0
21583 C23 90.3528 53.001 13.5725 C 0.0 **** 0.0
21584 C24 90.146 58.0741 13.1761 C 0.0 **** 0.0
21585 C25 91.2919 59.1013 13.3665 C 0.0 **** 0.0
21586 C26 91.6038 59.5035 14.6822 C 0.0 **** 0.0
21587 C27 90.6078 59.0955 15.7377 C 0.0 **** 0.0
21588 C28 92.8552 60.1064 14.9993 C 0.0 **** 0.0
21589 C29 93.6226 60.6869 13.9802 C 0.0 **** 0.0
21590 C30 93.361 60.2944 12.6648 C 0.0 **** 0.0
21591 C31 92.2612 59.4343 12.331 C 0.0 **** 0.0
21592 C32 94.2726 60.8183 11.5886 C 0.0 **** 0.0
21593 C33 95.3431 61.8419 11.8873 C 0.0 **** 0.0
21594 C34 94.955 62.6485 13.1423 C 0.0 **** 0.0
21595 C35 94.7328 61.6747 14.2934 C 0.0 **** 0.0
21596 C36 92.1515 59.0334 10.9552 C 0.0 **** 0.0
21597 C37 93.1113 59.3272 9.99825 C 0.0 **** 0.0
21598 C38 94.1333 60.2602 10.2936 C 0.0 **** 0.0
21599 C39 88.5662 53.3029 11.6604 C 0.0 **** 0.0
21600 C40 87.5955 54.4365 11.6415 C 0.0 **** 0.0
21601 C41 88.0438 55.4817 12.4134 C 0.0 **** 0.0
21602 C42 87.1851 56.5408 12.755 C 0.0 **** 0.0
21603 C43 85.9744 56.6961 12.0615 C 0.0 **** 0.0
21604 C44 85.5878 55.7149 11.1444 C 0.0 **** 0.0
21605 C45 86.4262 54.5486 10.919 C 0.0 **** 0.0
21606 C46 86.0479 53.6404 9.95512 C 0.0 **** 0.0
21607 C47 84.7981 53.6672 9.41156 C 0.0 **** 0.0
21608 C48 83.8985 54.7158 9.75423 C 0.0 **** 0.0
21609 C49 84.2984 55.8094 10.572 C 0.0 **** 0.0
21610 C50 83.5309 56.9627 10.78 C 0.0 **** 0.0
21611 C51 83.9677 57.9744 11.6443 C 0.0 **** 0.0
21612 C52 85.2099 57.8204 12.2718 C 0.0 **** 0.0
21613 O53 93.554 48.413 19.4627 O 0.0 **** 0.0
21614 C54 93.1267 50.6076 21.3309 C 0.0 **** 0.0
21615 O55 90.8375 51.789 13.0709 O 0.0 **** 0.0
21616 C56 84.44 52.603 8.38227 C 0.0 **** 0.0
21617 C57 84.009 51.3115 9.09788 C 0.0 **** 0.0
21618 O58 93.0466 58.8591 8.71891 O 0.0 **** 0.0
21619 O59 93.3554 60.2548 16.2978 O 0.0 **** 0.0
21620 O60 82.3227 57.1727 10.0975 O 0.0 **** 0.0
21621 H61 92.8796 48.9335 16.925 H 0.0 **** 0.0
21622 H62 92.1334 52.7613 20.0542 H 0.0 **** 0.0
21623 H63 91.4837 50.5817 15.2593 H 0.0 **** 0.0
21624 H64 93.0465 51.4584 15.2893 H 0.0 **** 0.0
21625 H65 90.7167 54.2886 19.7408 H 0.0 **** 0.0
21626 H66 92.1761 55.1807 19.2252 H 0.0 **** 0.0
21627 H67 89.2112 56.0799 19.1528 H 0.0 **** 0.0
21628 H68 90.5421 56.6856 20.2328 H 0.0 **** 0.0
21629 H69 90.0334 58.1984 18.2928 H 0.0 **** 0.0
21630 H70 91.7773 57.5542 18.2171 H 0.0 **** 0.0
21631 H71 90.2886 57.5497 12.2429 H 0.0 **** 0.0
21632 H72 91.0003 59.3968 16.698 H 0.0 **** 0.0
21633 H73 96.3165 61.3623 12.0521 H 0.0 **** 0.0
21634 H74 95.4612 62.5561 11.0486 H 0.0 **** 0.0
21635 H75 95.7533 63.3732 13.3852 H 0.0 **** 0.0
21636 H76 94.0075 63.1971 12.9761 H 0.0 **** 0.0
21637 H77 95.6653 61.0953 14.4003 H 0.0 **** 0.0
21638 H78 94.5096 62.1828 15.2612 H 0.0 **** 0.0
21639 H79 91.2724 58.4992 10.6159 H 0.0 **** 0.0
21640 H80 94.7789 60.5822 9.51845 H 0.0 **** 0.0
21641 H81 89.0202 53.1734 10.6698 H 0.0 **** 0.0
21642 H82 88.0506 52.3755 12.0581 H 0.0 **** 0.0
21643 H83 87.4498 57.2157 13.5463 H 0.0 **** 0.0
21644 H84 86.6869 52.7705 9.67753 H 0.0 **** 0.0
21645 H85 82.8911 54.6323 9.38307 H 0.0 **** 0.0
21646 H86 83.4062 58.8812 11.874 H 0.0 **** 0.0
21647 H87 85.5821 58.5423 13.0249 H 0.0 **** 0.0
21648 H88 93.7597 47.6391 18.8345 H 0.0 **** 0.0
21649 H89 92.7684 49.5864 21.6787 H 0.0 **** 0.0
21650 H90 92.5978 51.3885 21.9405 H 0.0 **** 0.0
21651 H91 94.2285 50.6489 21.4884 H 0.0 **** 0.0
21652 H92 90.663 51.667 12.062 H 0.0 **** 0.0
21653 H93 83.586 52.9438 7.76204 H 0.0 **** 0.0
21654 H94 83.7667 50.5784 8.28354 H 0.0 **** 0.0
21655 H95 83.0596 51.506 9.69332 H 0.0 **** 0.0
21656 H96 84.806 50.8784 9.78063 H 0.0 **** 0.0
21657 H97 92.3392 58.1298 8.60196 H 0.0 **** 0.0
21658 H98 93.1372 59.5036 16.8534 H 0.0 **** 0.0
21659 H99 82.247 56.639 9.24633 H 0.0 **** 0.0
21660 H100 89.1813 58.5961 13.101 H 0.0 **** 0.0
21661 H101 89.6337 59.5872 15.5843 H 0.0 **** 0.0
21662 H102 85.2811 52.3737 7.69929 H 0.0 **** 0.0
21663 C1 58.0262 36.1317 77.4625 C 0.0 **** 0.0
21664 C2 57.0381 35.6068 78.3222 C 0.0 **** 0.0
21665 C3 55.9418 34.9423 77.8115 C 0.0 **** 0.0
21666 C4 55.8104 34.6666 76.4622 C 0.0 **** 0.0
21667 C5 56.822 35.0559 75.5773 C 0.0 **** 0.0
21668 C6 57.8972 35.8739 76.0917 C 0.0 **** 0.0
21669 C7 54.5389 33.9582 76.2636 C 0.0 **** 0.0
21670 C8 53.9565 33.8515 77.5171 C 0.0 **** 0.0
21671 C9 54.819 34.3684 78.6059 C 0.0 **** 0.0
21672 C10 52.6482 33.3256 77.6825 C 0.0 **** 0.0
21673 C11 51.9475 32.9189 76.4891 C 0.0 **** 0.0
21674 C12 52.6381 32.8596 75.2367 C 0.0 **** 0.0
21675 C13 53.9335 33.4175 75.1226 C 0.0 **** 0.0
21676 C14 54.6098 33.4572 73.7712 C 0.0 **** 0.0
21677 C15 53.6531 33.1884 72.6044 C 0.0 **** 0.0
21678 C16 52.762 31.9644 72.8789 C 0.0 **** 0.0
21679 C17 51.947 32.1846 74.1142 C 0.0 **** 0.0
21680 C18 50.5782 31.85 74.2229 C 0.0 **** 0.0
21681 C19 49.9237 31.9371 75.428 C 0.0 **** 0.0
21682 C20 50.5674 32.5426 76.5618 C 0.0 **** 0.0
21683 C21 49.8866 32.9188 77.7322 C 0.0 **** 0.0
21684 C22 50.5556 33.0434 78.9316 C 0.0 **** 0.0
21685 C23 51.9568 33.2283 78.9363 C 0.0 **** 0.0
21686 C24 48.6698 31.1234 75.5929 C 0.0 **** 0.0
21687 C25 47.6951 31.4085 74.4762 C 0.0 **** 0.0
21688 C26 48.2848 31.4936 73.1729 C 0.0 **** 0.0
21689 C27 49.7904 31.358 73.0262 C 0.0 **** 0.0
21690 C28 47.4837 31.7841 72.0668 C 0.0 **** 0.0
21691 C29 46.1141 31.9153 72.2506 C 0.0 **** 0.0
21692 C30 45.5323 31.915 73.5194 C 0.0 **** 0.0
21693 C31 46.3041 31.7009 74.6711 C 0.0 **** 0.0
21694 C32 44.0744 32.2023 73.622 C 0.0 **** 0.0
21695 C33 43.1977 32.7651 72.487 C 0.0 **** 0.0
21696 C34 44.1175 33.1356 71.326 C 0.0 **** 0.0
21697 C35 45.1799 32.0373 71.0745 C 0.0 **** 0.0
21698 C36 45.6556 31.6457 75.9205 C 0.0 **** 0.0
21699 C37 44.2853 31.8352 76.0378 C 0.0 **** 0.0
21700 C38 43.5406 32.2536 74.933 C 0.0 **** 0.0
21701 C39 49.6039 33.4049 80.043 C 0.0 **** 0.0
21702 C40 48.3486 33.6418 79.2703 C 0.0 **** 0.0
21703 C41 48.57 33.3419 77.9456 C 0.0 **** 0.0
21704 C42 47.7242 33.869 76.9475 C 0.0 **** 0.0
21705 C43 46.5371 34.5332 77.3221 C 0.0 **** 0.0
21706 C44 46.2081 34.6829 78.7071 C 0.0 **** 0.0
21707 C45 47.1202 34.2732 79.6741 C 0.0 **** 0.0
21708 C46 46.8174 34.514 81.0205 C 0.0 **** 0.0
21709 C47 45.5658 34.9812 81.4359 C 0.0 **** 0.0
21710 C48 44.5959 35.2327 80.4385 C 0.0 **** 0.0
21711 C49 44.9369 35.1905 79.0798 C 0.0 **** 0.0
21712 C50 44.0326 35.5521 78.0514 C 0.0 **** 0.0
21713 C51 44.3991 35.5078 76.6979 C 0.0 **** 0.0
21714 C52 45.6441 34.9291 76.3617 C 0.0 **** 0.0
21715 O53 59.0539 36.8882 78.0016 O 0.0 **** 0.0
21716 C54 58.9603 36.3348 75.1117 C 0.0 **** 0.0
21717 O55 52.6647 33.3976 80.1297 O 0.0 **** 0.0
21718 C56 45.1527 35.1207 82.8939 C 0.0 **** 0.0
21719 C57 45.1247 33.7728 83.6841 C 0.0 **** 0.0
21720 O58 43.5954 31.6323 77.2609 O 0.0 **** 0.0
21721 O59 47.971 31.8516 70.773 O 0.0 **** 0.0
21722 O60 42.772 35.9995 78.422 O 0.0 **** 0.0
21723 H61 57.0951 35.7946 79.4186 H 0.0 **** 0.0
21724 H62 56.7516 34.8158 74.5128 H 0.0 **** 0.0
21725 H63 54.304 35.2291 79.1357 H 0.0 **** 0.0
21726 H64 55.1582 33.5774 79.3434 H 0.0 **** 0.0
21727 H65 54.8843 34.5199 73.5745 H 0.0 **** 0.0
21728 H66 55.4797 32.7703 73.6635 H 0.0 **** 0.0
21729 H67 52.9928 34.0534 72.4779 H 0.0 **** 0.0
21730 H68 54.2249 33.0624 71.6596 H 0.0 **** 0.0
21731 H69 52.1428 31.694 71.9929 H 0.0 **** 0.0
21732 H70 53.4304 31.0924 72.9773 H 0.0 **** 0.0
21733 H71 48.9729 30.0326 75.5021 H 0.0 **** 0.0
21734 H72 50.1134 30.2968 72.8309 H 0.0 **** 0.0
21735 H73 42.4655 31.9857 72.0858 H 0.0 **** 0.0
21736 H74 42.6123 33.6532 72.8766 H 0.0 **** 0.0
21737 H75 43.5568 33.4169 70.4239 H 0.0 **** 0.0
21738 H76 44.71 33.9997 71.7128 H 0.0 **** 0.0
21739 H77 44.6611 31.0295 70.9686 H 0.0 **** 0.0
21740 H78 45.6753 32.3205 70.0836 H 0.0 **** 0.0
21741 H79 46.1792 31.4103 76.838 H 0.0 **** 0.0
21742 H80 42.4814 32.426 75.0405 H 0.0 **** 0.0
21743 H81 49.4472 32.5758 80.7699 H 0.0 **** 0.0
21744 H82 49.901 34.305 80.5103 H 0.0 **** 0.0
21745 H83 47.9598 33.6635 75.9334 H 0.0 **** 0.0
21746 H84 47.551 34.3034 81.7846 H 0.0 **** 0.0
21747 H85 43.634 35.5369 80.7965 H 0.0 **** 0.0
21748 H86 43.7536 35.9038 75.9421 H 0.0 **** 0.0
21749 H87 45.8983 34.9787 75.3073 H 0.0 **** 0.0
21750 H88 59.1755 36.8649 79.0193 H 0.0 **** 0.0
21751 H89 59.8169 35.6366 75.0939 H 0.0 **** 0.0
21752 H90 59.3934 37.2665 75.5078 H 0.0 **** 0.0
21753 H91 58.5427 36.4217 74.1058 H 0.0 **** 0.0
21754 H92 52.1407 33.1765 80.965 H 0.0 **** 0.0
21755 H93 45.8572 35.8152 83.3894 H 0.0 **** 0.0
21756 H94 44.4147 33.8248 84.5319 H 0.0 **** 0.0
21757 H95 46.1086 33.5179 84.06 H 0.0 **** 0.0
21758 H96 44.7377 32.9721 83.0548 H 0.0 **** 0.0
21759 H97 44.1495 31.304 78.0282 H 0.0 **** 0.0
21760 H98 48.9135 31.5979 70.5621 H 0.0 **** 0.0
21761 H99 42.1474 36.1768 77.632 H 0.0 **** 0.0
21762 H100 48.2878 31.2211 76.6154 H 0.0 **** 0.0
21763 H101 50.0757 32.0934 72.2119 H 0.0 **** 0.0
21764 H102 44.1887 35.6565 83.0239 H 0.0 **** 0.0
21765 C1 28.8418 103.419 54.9415 C 0.0 **** 0.0
21766 C2 28.0765 102.965 53.8852 C 0.0 **** 0.0
21767 C3 28.4545 103.227 52.5451 C 0.0 **** 0.0
21768 C4 29.4804 104.109 52.2821 C 0.0 **** 0.0
21769 C5 30.2048 104.683 53.3445 C 0.0 **** 0.0
21770 C6 29.8553 104.317 54.6952 C 0.0 **** 0.0
21771 C7 29.5669 104.313 50.8205 C 0.0 **** 0.0
21772 C8 28.7203 103.368 50.2028 C 0.0 **** 0.0
21773 C9 27.9347 102.614 51.2863 C 0.0 **** 0.0
21774 C10 28.5219 103.367 48.799 C 0.0 **** 0.0
21775 C11 29.2419 104.377 48.0506 C 0.0 **** 0.0
21776 C12 29.8889 105.414 48.704 C 0.0 **** 0.0
21777 C13 30.0325 105.41 50.1027 C 0.0 **** 0.0
21778 C14 30.5229 106.617 50.8126 C 0.0 **** 0.0
21779 C15 30.4894 107.924 49.9937 C 0.0 **** 0.0
21780 C16 31.1048 107.657 48.631 C 0.0 **** 0.0
21781 C17 30.4862 106.507 47.9023 C 0.0 **** 0.0
21782 C18 30.5766 106.349 46.5016 C 0.0 **** 0.0
21783 C19 29.9438 105.263 45.8866 C 0.0 **** 0.0
21784 C20 29.1057 104.441 46.677 C 0.0 **** 0.0
21785 C21 28.0833 103.62 46.0919 C 0.0 **** 0.0
21786 C22 27.4755 102.568 46.8267 C 0.0 **** 0.0
21787 C23 27.8149 102.335 48.1537 C 0.0 **** 0.0
21788 C24 30.3608 104.82 44.4957 C 0.0 **** 0.0
21789 C25 31.133 105.797 43.6641 C 0.0 **** 0.0
21790 C26 31.5539 107.03 44.2314 C 0.0 **** 0.0
21791 C27 31.3166 107.405 45.6708 C 0.0 **** 0.0
21792 C28 32.1345 108.017 43.4096 C 0.0 **** 0.0
21793 C29 32.3164 107.764 42.1024 C 0.0 **** 0.0
21794 C30 32.0552 106.513 41.545 C 0.0 **** 0.0
21795 C31 31.4035 105.524 42.2863 C 0.0 **** 0.0
21796 C32 32.3284 106.267 40.0783 C 0.0 **** 0.0
21797 C33 32.9769 107.316 39.2082 C 0.0 **** 0.0
21798 C34 32.675 108.71 39.7351 C 0.0 **** 0.0
21799 C35 32.9798 108.786 41.2332 C 0.0 **** 0.0
21800 C36 30.9084 104.373 41.5772 C 0.0 **** 0.0
21801 C37 31.1972 104.158 40.2288 C 0.0 **** 0.0
21802 C38 31.9201 105.069 39.4777 C 0.0 **** 0.0
21803 C39 26.3158 101.964 46.0934 C 0.0 **** 0.0
21804 C40 26.2679 102.872 44.9107 C 0.0 **** 0.0
21805 C41 27.2749 103.852 45.0069 C 0.0 **** 0.0
21806 C42 27.1868 105.05 44.2887 C 0.0 **** 0.0
21807 C43 26.2001 105.201 43.3272 C 0.0 **** 0.0
21808 C44 25.2825 104.175 43.061 C 0.0 **** 0.0
21809 C45 25.2687 102.985 43.885 C 0.0 **** 0.0
21810 C46 24.3429 101.985 43.6407 C 0.0 **** 0.0
21811 C47 23.3454 102.177 42.6818 C 0.0 **** 0.0
21812 C48 23.3262 103.363 41.9053 C 0.0 **** 0.0
21813 C49 24.2412 104.389 42.1026 C 0.0 **** 0.0
21814 C50 24.1345 105.656 41.4543 C 0.0 **** 0.0
21815 C51 25.0618 106.686 41.728 C 0.0 **** 0.0
21816 C52 26.1005 106.413 42.6342 C 0.0 **** 0.0
21817 O53 28.5355 102.985 56.2409 O 0.0 **** 0.0
21818 C54 30.7034 104.851 55.8293 C 0.0 **** 0.0
21819 O55 27.2527 101.302 48.8798 O 0.0 **** 0.0
21820 C56 22.2443 101.181 42.5 C 0.0 **** 0.0
21821 C57 21.5153 100.939 43.8056 C 0.0 **** 0.0
21822 O58 30.5829 103.119 39.5509 O 0.0 **** 0.0
21823 O59 32.5282 109.255 43.8704 O 0.0 **** 0.0
21824 O60 22.9796 105.999 40.81 O 0.0 **** 0.0
21825 H61 27.2853 102.289 54.0181 H 0.0 **** 0.0
21826 H62 31.0361 105.317 53.085 H 0.0 **** 0.0
21827 H63 26.8742 102.789 51.1687 H 0.0 **** 0.0
21828 H64 28.1515 101.569 51.3001 H 0.0 **** 0.0
21829 H65 29.9061 106.793 51.7311 H 0.0 **** 0.0
21830 H66 31.545 106.395 51.223 H 0.0 **** 0.0
21831 H67 29.4336 108.315 49.8486 H 0.0 **** 0.0
21832 H68 31.141 108.699 50.4967 H 0.0 **** 0.0
21833 H69 31.0978 108.634 48.0508 H 0.0 **** 0.0
21834 H70 32.1928 107.372 48.7395 H 0.0 **** 0.0
21835 H71 30.8937 103.883 44.5993 H 0.0 **** 0.0
21836 H72 32.3174 107.576 46.1264 H 0.0 **** 0.0
21837 H73 34.0957 107.173 39.2682 H 0.0 **** 0.0
21838 H74 32.7478 107.215 38.1505 H 0.0 **** 0.0
21839 H75 33.3378 109.45 39.2192 H 0.0 **** 0.0
21840 H76 31.6151 108.934 39.5307 H 0.0 **** 0.0
21841 H77 34.0721 108.725 41.4523 H 0.0 **** 0.0
21842 H78 32.6397 109.824 41.5598 H 0.0 **** 0.0
21843 H79 30.3365 103.591 42.0951 H 0.0 **** 0.0
21844 H80 32.0549 104.846 38.3702 H 0.0 **** 0.0
21845 H81 26.5025 100.903 45.7335 H 0.0 **** 0.0
21846 H82 25.4094 102.019 46.672 H 0.0 **** 0.0
21847 H83 27.8305 105.886 44.5157 H 0.0 **** 0.0
21848 H84 24.3826 101.087 44.2318 H 0.0 **** 0.0
21849 H85 22.6345 103.42 41.0492 H 0.0 **** 0.0
21850 H86 24.9387 107.678 41.337 H 0.0 **** 0.0
21851 H87 26.7511 107.221 42.8293 H 0.0 **** 0.0
21852 H88 27.828 102.303 56.3376 H 0.0 **** 0.0
21853 H89 30.0884 105.645 56.4001 H 0.0 **** 0.0
21854 H90 31.6626 105.284 55.404 H 0.0 **** 0.0
21855 H91 31.0166 104.077 56.5152 H 0.0 **** 0.0
21856 H92 26.6482 100.707 48.3167 H 0.0 **** 0.0
21857 H93 21.5633 101.443 41.6706 H 0.0 **** 0.0
21858 H94 20.549 100.378 43.6873 H 0.0 **** 0.0
21859 H95 21.2795 101.938 44.2511 H 0.0 **** 0.0
21860 H96 22.117 100.356 44.5902 H 0.0 **** 0.0
21861 H97 30.0153 102.493 40.1648 H 0.0 **** 0.0
21862 H98 32.3382 109.464 44.8341 H 0.0 **** 0.0
21863 H99 22.1494 105.681 41.2721 H 0.0 **** 0.0
21864 H100 29.4925 104.442 43.9404 H 0.0 **** 0.0
21865 H101 30.6912 108.341 45.7337 H 0.0 **** 0.0
21866 H102 22.7838 100.283 42.1218 H 0.0 **** 0.0
21867 C1 32.282 9.88749 42.6409 C 0.0 **** 0.0
21868 C2 33.4601 10.6616 42.6509 C 0.0 **** 0.0
21869 C3 33.8832 11.2418 41.4351 C 0.0 **** 0.0
21870 C4 33.1806 11.0837 40.2645 C 0.0 **** 0.0
21871 C5 31.9972 10.3554 40.2964 C 0.0 **** 0.0
21872 C6 31.568 9.72666 41.4644 C 0.0 **** 0.0
21873 C7 33.9208 11.6973 39.147 C 0.0 **** 0.0
21874 C8 35.0986 12.1933 39.6369 C 0.0 **** 0.0
21875 C9 35.1466 11.9416 41.1462 C 0.0 **** 0.0
21876 C10 36.118 12.7071 38.773 C 0.0 **** 0.0
21877 C11 35.773 12.9049 37.3809 C 0.0 **** 0.0
21878 C12 34.4793 12.5732 36.9284 C 0.0 **** 0.0
21879 C13 33.6148 11.8046 37.7534 C 0.0 **** 0.0
21880 C14 32.3009 11.3073 37.1993 C 0.0 **** 0.0
21881 C15 32.197 11.267 35.6588 C 0.0 **** 0.0
21882 C16 32.6594 12.5852 35.073 C 0.0 **** 0.0
21883 C17 34.0502 13.0154 35.5744 C 0.0 **** 0.0
21884 C18 34.8463 13.9646 34.9032 C 0.0 **** 0.0
21885 C19 36.1223 14.3081 35.4161 C 0.0 **** 0.0
21886 C20 36.6707 13.598 36.5585 C 0.0 **** 0.0
21887 C21 38.0386 13.6717 37.0044 C 0.0 **** 0.0
21888 C22 38.3697 13.5495 38.3097 C 0.0 **** 0.0
21889 C23 37.3966 13.0809 39.2214 C 0.0 **** 0.0
21890 C24 36.816 15.5515 34.8884 C 0.0 **** 0.0
21891 C25 36.0525 16.4316 33.9162 C 0.0 **** 0.0
21892 C26 34.8763 15.9243 33.2717 C 0.0 **** 0.0
21893 C27 34.3265 14.5676 33.625 C 0.0 **** 0.0
21894 C28 34.2522 16.7128 32.2966 C 0.0 **** 0.0
21895 C29 34.6159 18.049 32.1193 C 0.0 **** 0.0
21896 C30 35.6621 18.5781 32.8557 C 0.0 **** 0.0
21897 C31 36.4735 17.7381 33.6251 C 0.0 **** 0.0
21898 C32 35.9758 20.0296 32.7428 C 0.0 **** 0.0
21899 C33 34.9516 20.9533 32.1134 C 0.0 **** 0.0
21900 C34 34.5359 20.3005 30.8311 C 0.0 **** 0.0
21901 C35 33.9792 18.8807 31.0228 C 0.0 **** 0.0
21902 C36 37.6446 18.26 34.1717 C 0.0 **** 0.0
21903 C37 37.9904 19.6472 34.0031 C 0.0 **** 0.0
21904 C38 37.1577 20.5436 33.3077 C 0.0 **** 0.0
21905 C39 39.8236 13.858 38.5812 C 0.0 **** 0.0
21906 C40 40.3086 14.1011 37.1525 C 0.0 **** 0.0
21907 C41 39.2552 13.8419 36.3091 C 0.0 **** 0.0
21908 C42 39.5625 13.497 34.9751 C 0.0 **** 0.0
21909 C43 40.9155 13.6056 34.4963 C 0.0 **** 0.0
21910 C44 41.9355 14.0366 35.3852 C 0.0 **** 0.0
21911 C45 41.6659 14.2344 36.7369 C 0.0 **** 0.0
21912 C46 42.6583 14.5264 37.6018 C 0.0 **** 0.0
21913 C47 43.975 14.6491 37.154 C 0.0 **** 0.0
21914 C48 44.3033 14.5461 35.7813 C 0.0 **** 0.0
21915 C49 43.2509 14.2732 34.8773 C 0.0 **** 0.0
21916 C50 43.4807 14.1955 33.4731 C 0.0 **** 0.0
21917 C51 42.493 13.7339 32.6211 C 0.0 **** 0.0
21918 C52 41.2022 13.4814 33.1073 C 0.0 **** 0.0
21919 O53 31.7921 9.2895 43.7932 O 0.0 **** 0.0
21920 C54 30.4727 8.6853 41.4315 C 0.0 **** 0.0
21921 O55 37.7198 12.8606 40.5918 O 0.0 **** 0.0
21922 C56 45.0191 14.9682 38.1909 C 0.0 **** 0.0
21923 C57 45.9913 13.7677 38.3807 C 0.0 **** 0.0
21924 O58 39.2106 20.1614 34.4718 O 0.0 **** 0.0
21925 O59 33.2362 16.2258 31.4797 O 0.0 **** 0.0
21926 O60 44.6708 14.6441 32.8676 O 0.0 **** 0.0
21927 H61 34.0314 10.7809 43.5496 H 0.0 **** 0.0
21928 H62 31.3679 10.2171 39.431 H 0.0 **** 0.0
21929 H63 36.003 11.2845 41.4135 H 0.0 **** 0.0
21930 H64 35.1734 12.8735 41.7914 H 0.0 **** 0.0
21931 H65 32.1773 10.2798 37.5177 H 0.0 **** 0.0
21932 H66 31.468 11.9625 37.591 H 0.0 **** 0.0
21933 H67 32.8159 10.3635 35.2834 H 0.0 **** 0.0
21934 H68 31.171 11.1001 35.3653 H 0.0 **** 0.0
21935 H69 32.749 12.4087 33.9544 H 0.0 **** 0.0
21936 H70 31.8746 13.3273 35.1851 H 0.0 **** 0.0
21937 H71 37.0675 16.1266 35.7989 H 0.0 **** 0.0
21938 H72 33.2519 14.7377 33.7497 H 0.0 **** 0.0
21939 H73 34.1071 21.0681 32.8407 H 0.0 **** 0.0
21940 H74 35.3406 21.9363 31.9044 H 0.0 **** 0.0
21941 H75 33.8135 20.9036 30.2469 H 0.0 **** 0.0
21942 H76 35.3874 20.2174 30.1424 H 0.0 **** 0.0
21943 H77 32.9242 19.0156 31.3421 H 0.0 **** 0.0
21944 H78 33.9554 18.3666 29.9715 H 0.0 **** 0.0
21945 H79 38.2833 17.6836 34.8002 H 0.0 **** 0.0
21946 H80 37.3027 21.6594 33.3526 H 0.0 **** 0.0
21947 H81 40.018 14.7305 39.1946 H 0.0 **** 0.0
21948 H82 40.3328 13.0272 39.027 H 0.0 **** 0.0
21949 H83 38.7634 13.1595 34.3114 H 0.0 **** 0.0
21950 H84 42.4277 14.6316 38.6342 H 0.0 **** 0.0
21951 H85 45.3241 14.8223 35.4763 H 0.0 **** 0.0
21952 H86 42.6716 13.6852 31.5772 H 0.0 **** 0.0
21953 H87 40.457 13.1021 32.4007 H 0.0 **** 0.0
21954 H88 32.4255 9.34379 44.5682 H 0.0 **** 0.0
21955 H89 29.6822 8.92382 42.195 H 0.0 **** 0.0
21956 H90 30.9446 7.689 41.6281 H 0.0 **** 0.0
21957 H91 29.9298 8.67844 40.4601 H 0.0 **** 0.0
21958 H92 38.6462 13.1524 40.8612 H 0.0 **** 0.0
21959 H93 45.553 15.9054 37.8908 H 0.0 **** 0.0
21960 H94 46.8889 14.0372 39.011 H 0.0 **** 0.0
21961 H95 46.3551 13.4053 37.416 H 0.0 **** 0.0
21962 H96 45.5163 12.9677 38.9517 H 0.0 **** 0.0
21963 H97 39.76 19.5079 35.0369 H 0.0 **** 0.0
21964 H98 32.9629 15.2465 31.5789 H 0.0 **** 0.0
21965 H99 45.2666 15.2084 33.4404 H 0.0 **** 0.0
21966 H100 37.7441 15.299 34.4186 H 0.0 **** 0.0
21967 H101 34.4787 13.9174 32.7107 H 0.0 **** 0.0
21968 H102 44.6463 15.2386 39.187 H 0.0 **** 0.0
21969 C1 28.9823 70.6551 2.36416 C 0.0 **** 0.0
21970 C2 27.6176 70.2117 2.31902 C 0.0 **** 0.0
21971 C3 26.9504 69.9705 3.50502 C 0.0 **** 0.0
21972 C4 27.5963 70.0658 4.72917 C 0.0 **** 0.0
21973 C5 28.876 70.6435 4.79771 C 0.0 **** 0.0
21974 C6 29.5797 70.9326 3.60814 C 0.0 **** 0.0
21975 C7 26.8021 69.3522 5.74991 C 0.0 **** 0.0
21976 C8 25.6449 68.9343 5.11603 C 0.0 **** 0.0
21977 C9 25.6401 69.3063 3.67575 C 0.0 **** 0.0
21978 C10 24.7063 68.0755 5.76788 C 0.0 **** 0.0
21979 C11 25.0374 67.6403 7.09899 C 0.0 **** 0.0
21980 C12 26.2181 68.109 7.76278 C 0.0 **** 0.0
21981 C13 27.185 68.8619 7.06696 C 0.0 **** 0.0
21982 C14 28.4934 69.2814 7.77871 C 0.0 **** 0.0
21983 C15 28.6904 68.546 9.08993 C 0.0 **** 0.0
21984 C16 27.4514 68.5588 9.99495 C 0.0 **** 0.0
21985 C17 26.3037 67.8919 9.29991 C 0.0 **** 0.0
21986 C18 25.1272 67.5113 9.99332 C 0.0 **** 0.0
21987 C19 24.0544 67.015 9.25399 C 0.0 **** 0.0
21988 C20 24.1517 66.846 7.82867 C 0.0 **** 0.0
21989 C21 23.1724 66.1934 7.02945 C 0.0 **** 0.0
21990 C22 22.692 66.7262 5.86612 C 0.0 **** 0.0
21991 C23 23.4889 67.6461 5.152 C 0.0 **** 0.0
21992 C24 22.6775 66.8828 9.91113 C 0.0 **** 0.0
21993 C25 22.4931 67.1822 11.3454 C 0.0 **** 0.0
21994 C26 23.6079 67.5547 12.1328 C 0.0 **** 0.0
21995 C27 25.0091 67.7221 11.4795 C 0.0 **** 0.0
21996 C28 23.4266 67.6718 13.5295 C 0.0 **** 0.0
21997 C29 22.1741 67.3823 14.1097 C 0.0 **** 0.0
21998 C30 21.0759 67.1448 13.3003 C 0.0 **** 0.0
21999 C31 21.1992 66.9733 11.9338 C 0.0 **** 0.0
22000 C32 19.7331 66.8848 13.919 C 0.0 **** 0.0
22001 C33 19.5441 67.0048 15.421 C 0.0 **** 0.0
22002 C34 20.7735 66.4785 16.0942 C 0.0 **** 0.0
22003 C35 22.0331 67.2619 15.6148 C 0.0 **** 0.0
22004 C36 20.0319 66.5928 11.1769 C 0.0 **** 0.0
22005 C37 18.7569 66.4089 11.7455 C 0.0 **** 0.0
22006 C38 18.602 66.5663 13.1215 C 0.0 **** 0.0
22007 C39 21.4584 65.9542 5.4264 C 0.0 **** 0.0
22008 C40 21.409 64.9271 6.48698 C 0.0 **** 0.0
22009 C41 22.4778 65.0545 7.34059 C 0.0 **** 0.0
22010 C42 22.8927 64.0004 8.15308 C 0.0 **** 0.0
22011 C43 22.0118 62.9069 8.31269 C 0.0 **** 0.0
22012 C44 20.716 62.9249 7.69707 C 0.0 **** 0.0
22013 C45 20.4248 63.9222 6.71304 C 0.0 **** 0.0
22014 C46 19.2266 63.8901 5.94027 C 0.0 **** 0.0
22015 C47 18.2707 62.9236 6.22787 C 0.0 **** 0.0
22016 C48 18.498 62.01 7.31491 C 0.0 **** 0.0
22017 C49 19.7288 61.9813 8.04194 C 0.0 **** 0.0
22018 C50 20.0623 61.0125 9.05674 C 0.0 **** 0.0
22019 C51 21.3984 60.9144 9.5289 C 0.0 **** 0.0
22020 C52 22.3834 61.8036 9.06067 C 0.0 **** 0.0
22021 O53 29.7809 70.6536 1.22054 O 0.0 **** 0.0
22022 C54 31.0053 71.4541 3.62839 C 0.0 **** 0.0
22023 O55 23.1628 68.0206 3.81875 O 0.0 **** 0.0
22024 C56 17.0333 62.8278 5.32384 C 0.0 **** 0.0
22025 C57 16.1322 64.0359 5.34152 C 0.0 **** 0.0
22026 O58 17.661 65.8954 10.9867 O 0.0 **** 0.0
22027 O59 24.4863 68.0398 14.3513 O 0.0 **** 0.0
22028 O60 19.1221 60.1626 9.65275 O 0.0 **** 0.0
22029 H61 27.1383 69.9652 1.37117 H 0.0 **** 0.0
22030 H62 29.3435 70.7977 5.7716 H 0.0 **** 0.0
22031 H63 25.6061 68.3823 3.07299 H 0.0 **** 0.0
22032 H64 24.8124 69.9493 3.4305 H 0.0 **** 0.0
22033 H65 29.3401 69.0004 7.10336 H 0.0 **** 0.0
22034 H66 28.5337 70.3781 7.9422 H 0.0 **** 0.0
22035 H67 29.0472 67.5376 8.87419 H 0.0 **** 0.0
22036 H68 29.4941 69.042 9.70586 H 0.0 **** 0.0
22037 H69 27.6213 68.0998 10.9982 H 0.0 **** 0.0
22038 H70 27.173 69.6186 10.1637 H 0.0 **** 0.0
22039 H71 21.9638 67.4803 9.36186 H 0.0 **** 0.0
22040 H72 25.3377 68.7886 11.6819 H 0.0 **** 0.0
22041 H73 19.5125 68.1109 15.6737 H 0.0 **** 0.0
22042 H74 18.6082 66.505 15.7886 H 0.0 **** 0.0
22043 H75 20.6746 66.5595 17.2045 H 0.0 **** 0.0
22044 H76 20.918 65.4178 15.872 H 0.0 **** 0.0
22045 H77 22.0711 68.252 16.084 H 0.0 **** 0.0
22046 H78 22.9494 66.7102 16.0393 H 0.0 **** 0.0
22047 H79 20.1192 66.5091 10.0803 H 0.0 **** 0.0
22048 H80 17.7083 66.3958 13.5845 H 0.0 **** 0.0
22049 H81 20.5309 66.538 5.35415 H 0.0 **** 0.0
22050 H82 21.6022 65.4953 4.45325 H 0.0 **** 0.0
22051 H83 23.8568 64.0054 8.61329 H 0.0 **** 0.0
22052 H84 19.0268 64.6521 5.14336 H 0.0 **** 0.0
22053 H85 17.7763 61.2312 7.48759 H 0.0 **** 0.0
22054 H86 21.6392 60.1744 10.2087 H 0.0 **** 0.0
22055 H87 23.4197 61.6825 9.35159 H 0.0 **** 0.0
22056 H88 29.2577 70.4565 0.340552 H 0.0 **** 0.0
22057 H89 31.4775 71.3747 2.60963 H 0.0 **** 0.0
22058 H90 31.5463 70.687 4.2683 H 0.0 **** 0.0
22059 H91 31.0304 72.4717 4.03536 H 0.0 **** 0.0
22060 H92 22.274 67.5849 3.5122 H 0.0 **** 0.0
22061 H93 17.3108 62.6663 4.23121 H 0.0 **** 0.0
22062 H94 15.1338 63.7295 5.02563 H 0.0 **** 0.0
22063 H95 16.4691 64.8076 4.62602 H 0.0 **** 0.0
22064 H96 16.0271 64.508 6.33815 H 0.0 **** 0.0
22065 H97 17.911 65.7182 10.0056 H 0.0 **** 0.0
22066 H98 25.1977 68.5606 13.9148 H 0.0 **** 0.0
22067 H99 18.1636 60.4156 9.52273 H 0.0 **** 0.0
22068 H100 22.3632 65.8359 9.81292 H 0.0 **** 0.0
22069 H101 25.661 67.0023 11.9942 H 0.0 **** 0.0
22070 H102 16.4169 61.9808 5.69089 H 0.0 **** 0.0
22071 C1 20.033 96.5675 12.6181 C 0.0 **** 0.0
22072 C2 19.2142 95.677 11.8173 C 0.0 **** 0.0
22073 C3 19.4312 94.2789 11.9007 C 0.0 **** 0.0
22074 C4 20.3414 93.8123 12.7996 C 0.0 **** 0.0
22075 C5 21.0941 94.675 13.6625 C 0.0 **** 0.0
22076 C6 20.9174 96.0675 13.5443 C 0.0 **** 0.0
22077 C7 20.2065 92.361 12.7972 C 0.0 **** 0.0
22078 C8 19.2307 91.9855 11.8651 C 0.0 **** 0.0
22079 C9 18.7008 93.2278 11.202 C 0.0 **** 0.0
22080 C10 18.9123 90.6224 11.6548 C 0.0 **** 0.0
22081 C11 19.6454 89.6562 12.4174 C 0.0 **** 0.0
22082 C12 20.6695 90.0588 13.3196 C 0.0 **** 0.0
22083 C13 21.0187 91.4038 13.4294 C 0.0 **** 0.0
22084 C14 22.1395 91.8267 14.343 C 0.0 **** 0.0
22085 C15 23.1517 90.7413 14.5178 C 0.0 **** 0.0
22086 C16 22.5211 89.4684 15.0727 C 0.0 **** 0.0
22087 C17 21.3315 89.0529 14.2022 C 0.0 **** 0.0
22088 C18 20.7877 87.7771 14.2415 C 0.0 **** 0.0
22089 C19 19.6914 87.4606 13.3957 C 0.0 **** 0.0
22090 C20 19.2708 88.3159 12.3378 C 0.0 **** 0.0
22091 C21 18.2999 87.9432 11.3252 C 0.0 **** 0.0
22092 C22 17.5221 88.8979 10.6521 C 0.0 **** 0.0
22093 C23 17.8112 90.2572 10.7713 C 0.0 **** 0.0
22094 C24 18.6974 86.5069 14.0013 C 0.0 **** 0.0
22095 C25 19.299 85.2529 14.6383 C 0.0 **** 0.0
22096 C26 20.4702 85.451 15.3973 C 0.0 **** 0.0
22097 C27 21.2311 86.7321 15.2735 C 0.0 **** 0.0
22098 C28 20.9284 84.4453 16.2781 C 0.0 **** 0.0
22099 C29 20.3097 83.1963 16.2256 C 0.0 **** 0.0
22100 C30 19.2581 82.9017 15.3219 C 0.0 **** 0.0
22101 C31 18.7074 83.9516 14.5273 C 0.0 **** 0.0
22102 C32 18.6855 81.5291 15.2291 C 0.0 **** 0.0
22103 C33 19.3821 80.3792 15.8738 C 0.0 **** 0.0
22104 C34 20.8187 80.7477 16.333 C 0.0 **** 0.0
22105 C35 20.8231 82.0878 17.0988 C 0.0 **** 0.0
22106 C36 17.4922 83.6724 13.7811 C 0.0 **** 0.0
22107 C37 16.9034 82.415 13.8576 C 0.0 **** 0.0
22108 C38 17.5059 81.3148 14.4899 C 0.0 **** 0.0
22109 C39 16.531 88.2398 9.71618 C 0.0 **** 0.0
22110 C40 16.8424 86.7826 10.0121 C 0.0 **** 0.0
22111 C41 17.9371 86.701 10.8601 C 0.0 **** 0.0
22112 C42 18.5599 85.4364 11.0913 C 0.0 **** 0.0
22113 C43 17.9199 84.2772 10.5777 C 0.0 **** 0.0
22114 C44 16.6272 84.3518 9.95876 C 0.0 **** 0.0
22115 C45 16.1174 85.6146 9.6354 C 0.0 **** 0.0
22116 C46 14.8827 85.7021 8.96731 C 0.0 **** 0.0
22117 C47 14.2009 84.5155 8.57982 C 0.0 **** 0.0
22118 C48 14.6125 83.2746 9.11575 C 0.0 **** 0.0
22119 C49 15.9218 83.1461 9.67429 C 0.0 **** 0.0
22120 C50 16.5831 81.9167 9.95374 C 0.0 **** 0.0
22121 C51 17.8646 81.888 10.4357 C 0.0 **** 0.0
22122 C52 18.4942 82.9995 10.7712 C 0.0 **** 0.0
22123 O53 19.9348 97.9461 12.5887 O 0.0 **** 0.0
22124 C54 21.5414 97.0129 14.5648 C 0.0 **** 0.0
22125 O55 17.4027 91.1411 9.7631 O 0.0 **** 0.0
22126 C56 12.8278 84.6667 7.93604 C 0.0 **** 0.0
22127 C57 12.591 83.6571 6.84959 C 0.0 **** 0.0
22128 O58 15.7897 82.1419 13.0805 O 0.0 **** 0.0
22129 O59 21.885 84.6913 17.2439 O 0.0 **** 0.0
22130 O60 15.9616 80.6552 9.86676 O 0.0 **** 0.0
22131 H61 18.4978 96.0764 11.1267 H 0.0 **** 0.0
22132 H62 21.6292 94.3673 14.5204 H 0.0 **** 0.0
22133 H63 19.0355 93.1959 10.1435 H 0.0 **** 0.0
22134 H64 17.5832 93.3778 11.3317 H 0.0 **** 0.0
22135 H65 22.7043 92.6499 13.9121 H 0.0 **** 0.0
22136 H66 21.7587 92.0993 15.3301 H 0.0 **** 0.0
22137 H67 23.5961 90.4878 13.5017 H 0.0 **** 0.0
22138 H68 23.9742 91.1152 15.1375 H 0.0 **** 0.0
22139 H69 23.2736 88.6459 15.054 H 0.0 **** 0.0
22140 H70 22.1626 89.6795 16.1146 H 0.0 **** 0.0
22141 H71 18.2654 87.0729 14.8483 H 0.0 **** 0.0
22142 H72 21.3567 87.1637 16.2928 H 0.0 **** 0.0
22143 H73 18.7971 79.9843 16.7248 H 0.0 **** 0.0
22144 H74 19.4078 79.5285 15.1668 H 0.0 **** 0.0
22145 H75 21.1708 79.9613 17.0167 H 0.0 **** 0.0
22146 H76 21.5047 80.8358 15.4822 H 0.0 **** 0.0
22147 H77 20.2273 82.0277 18.0563 H 0.0 **** 0.0
22148 H78 21.8903 82.2139 17.4125 H 0.0 **** 0.0
22149 H79 16.9742 84.3853 13.1629 H 0.0 **** 0.0
22150 H80 17.1238 80.3123 14.3215 H 0.0 **** 0.0
22151 H81 15.4772 88.5161 9.9611 H 0.0 **** 0.0
22152 H82 16.8146 88.4858 8.64594 H 0.0 **** 0.0
22153 H83 19.4788 85.3182 11.6793 H 0.0 **** 0.0
22154 H84 14.4715 86.6508 8.69958 H 0.0 **** 0.0
22155 H85 13.9332 82.4963 9.05395 H 0.0 **** 0.0
22156 H86 18.438 80.9862 10.5219 H 0.0 **** 0.0
22157 H87 19.4845 82.9401 11.1448 H 0.0 **** 0.0
22158 H88 19.0757 98.2406 12.1793 H 0.0 **** 0.0
22159 H89 22.3168 96.5079 15.1868 H 0.0 **** 0.0
22160 H90 20.759 97.4584 15.2075 H 0.0 **** 0.0
22161 H91 22.0042 97.8287 13.9838 H 0.0 **** 0.0
22162 H92 16.5916 90.8187 9.27388 H 0.0 **** 0.0
22163 H93 12.0226 84.5545 8.62149 H 0.0 **** 0.0
22164 H94 12.3174 82.6721 7.27235 H 0.0 **** 0.0
22165 H95 13.4734 83.5689 6.24251 H 0.0 **** 0.0
22166 H96 11.7781 83.9515 6.17011 H 0.0 **** 0.0
22167 H97 15.3739 82.8869 12.5925 H 0.0 **** 0.0
22168 H98 22.467 85.5388 17.0935 H 0.0 **** 0.0
22169 H99 14.9548 80.7389 9.83361 H 0.0 **** 0.0
22170 H100 17.7754 86.3052 13.3713 H 0.0 **** 0.0
22171 H101 22.2334 86.4347 14.9862 H 0.0 **** 0.0
22172 H102 12.7716 85.6837 7.50049 H 0.0 **** 0.0
22173 C1 26.2027 62.8008 92.3548 C 0.0 **** 0.0
22174 C2 25.4257 63.2303 93.4353 C 0.0 **** 0.0
22175 C3 25.0644 64.5578 93.5082 C 0.0 **** 0.0
22176 C4 25.3173 65.4458 92.5249 C 0.0 **** 0.0
22177 C5 25.9067 65.0282 91.2889 C 0.0 **** 0.0
22178 C6 26.4114 63.7145 91.2367 C 0.0 **** 0.0
22179 C7 24.788 66.754 92.8555 C 0.0 **** 0.0
22180 C8 24.0804 66.6365 94.0616 C 0.0 **** 0.0
22181 C9 24.2454 65.228 94.6064 C 0.0 **** 0.0
22182 C10 23.4068 67.7253 94.6269 C 0.0 **** 0.0
22183 C11 23.3272 68.9356 93.8639 C 0.0 **** 0.0
22184 C12 24.2563 69.1315 92.8124 C 0.0 **** 0.0
22185 C13 25.0302 68.0071 92.332 C 0.0 **** 0.0
22186 C14 26.2041 68.1932 91.4292 C 0.0 **** 0.0
22187 C15 26.8211 69.5533 91.7019 C 0.0 **** 0.0
22188 C16 25.7784 70.6925 91.5082 C 0.0 **** 0.0
22189 C17 24.5405 70.5011 92.366 C 0.0 **** 0.0
22190 C18 23.6692 71.5431 92.7747 C 0.0 **** 0.0
22191 C19 22.5354 71.2837 93.5405 C 0.0 **** 0.0
22192 C20 22.4155 69.9967 94.2207 C 0.0 **** 0.0
22193 C21 21.7199 69.7771 95.4435 C 0.0 **** 0.0
22194 C22 22.1224 68.7971 96.3439 C 0.0 **** 0.0
22195 C23 22.8422 67.6809 95.9349 C 0.0 **** 0.0
22196 C24 21.4355 72.3066 93.4468 C 0.0 **** 0.0
22197 C25 21.5777 73.5013 92.52 C 0.0 **** 0.0
22198 C26 22.8562 73.8653 92.0602 C 0.0 **** 0.0
22199 C27 24.0236 72.9917 92.5047 C 0.0 **** 0.0
22200 C28 23.0634 74.8637 91.0868 C 0.0 **** 0.0
22201 C29 21.9561 75.3025 90.2675 C 0.0 **** 0.0
22202 C30 20.6662 74.8883 90.6368 C 0.0 **** 0.0
22203 C31 20.4391 74.0803 91.8125 C 0.0 **** 0.0
22204 C32 19.4725 75.2734 89.7734 C 0.0 **** 0.0
22205 C33 19.6635 76.0217 88.455 C 0.0 **** 0.0
22206 C34 20.8556 76.998 88.6082 C 0.0 **** 0.0
22207 C35 22.1847 76.2596 89.1194 C 0.0 **** 0.0
22208 C36 19.0513 73.7847 92.1638 C 0.0 **** 0.0
22209 C37 17.9759 74.1923 91.3867 C 0.0 **** 0.0
22210 C38 18.1787 74.872 90.1883 C 0.0 **** 0.0
22211 C39 21.8404 69.2047 97.7702 C 0.0 **** 0.0
22212 C40 20.9116 70.3164 97.4827 C 0.0 **** 0.0
22213 C41 20.7944 70.5586 96.1144 C 0.0 **** 0.0
22214 C42 19.5778 71.1087 95.6596 C 0.0 **** 0.0
22215 C43 18.5794 71.5574 96.5561 C 0.0 **** 0.0
22216 C44 18.875 71.6068 97.9138 C 0.0 **** 0.0
22217 C45 20.056 70.9475 98.3724 C 0.0 **** 0.0
22218 C46 20.2862 70.9486 99.7638 C 0.0 **** 0.0
22219 C47 19.3844 71.569 100.681 C 0.0 **** 0.0
22220 C48 18.2477 72.1696 100.209 C 0.0 **** 0.0
22221 C49 17.9186 72.0781 98.8383 C 0.0 **** 0.0
22222 C50 16.6051 72.4126 98.3765 C 0.0 **** 0.0
22223 C51 16.306 72.2331 97.036 C 0.0 **** 0.0
22224 C52 17.3042 71.881 96.102 C 0.0 **** 0.0
22225 O53 26.8583 61.582 92.3502 O 0.0 **** 0.0
22226 C54 27.3183 63.318 90.0952 C 0.0 **** 0.0
22227 O55 23.0115 66.5606 96.7748 O 0.0 **** 0.0
22228 C56 19.7781 71.5209 102.164 C 0.0 **** 0.0
22229 C57 18.5929 71.584 103.147 C 0.0 **** 0.0
22230 O58 16.6574 73.8959 91.8289 O 0.0 **** 0.0
22231 O59 24.3225 75.4191 90.889 O 0.0 **** 0.0
22232 O60 15.5299 72.7972 99.1956 O 0.0 **** 0.0
22233 H61 25.2384 62.5607 94.2974 H 0.0 **** 0.0
22234 H62 25.9684 65.6838 90.3955 H 0.0 **** 0.0
22235 H63 24.8039 65.2429 95.5685 H 0.0 **** 0.0
22236 H64 23.2348 64.7136 94.7446 H 0.0 **** 0.0
22237 H65 26.9022 67.4271 91.6947 H 0.0 **** 0.0
22238 H66 25.7785 68.1019 90.4188 H 0.0 **** 0.0
22239 H67 27.1694 69.6172 92.7591 H 0.0 **** 0.0
22240 H68 27.6627 69.6793 91.0308 H 0.0 **** 0.0
22241 H69 26.3311 71.5577 91.9248 H 0.0 **** 0.0
22242 H70 25.5076 70.751 90.4335 H 0.0 **** 0.0
22243 H71 20.5883 71.7359 93.1008 H 0.0 **** 0.0
22244 H72 24.8265 73.0941 91.7496 H 0.0 **** 0.0
22245 H73 19.9597 75.3309 87.6186 H 0.0 **** 0.0
22246 H74 18.7448 76.6023 88.1925 H 0.0 **** 0.0
22247 H75 20.9986 77.3791 87.5597 H 0.0 **** 0.0
22248 H76 20.5606 77.8084 89.3081 H 0.0 **** 0.0
22249 H77 22.5748 75.7529 88.238 H 0.0 **** 0.0
22250 H78 22.8618 77.1042 89.3834 H 0.0 **** 0.0
22251 H79 18.8467 73.3314 93.1302 H 0.0 **** 0.0
22252 H80 17.3533 75.1133 89.5921 H 0.0 **** 0.0
22253 H81 21.3212 68.4381 98.4148 H 0.0 **** 0.0
22254 H82 22.7759 69.563 98.2847 H 0.0 **** 0.0
22255 H83 19.2939 71.0479 94.6381 H 0.0 **** 0.0
22256 H84 21.2391 70.4953 100.114 H 0.0 **** 0.0
22257 H85 17.6098 72.6845 100.879 H 0.0 **** 0.0
22258 H86 15.3361 72.4471 96.6752 H 0.0 **** 0.0
22259 H87 17.0197 71.8514 95.0476 H 0.0 **** 0.0
22260 H88 26.9367 61.1923 93.2812 H 0.0 **** 0.0
22261 H89 26.9391 62.3746 89.6503 H 0.0 **** 0.0
22262 H90 28.335 63.1545 90.5074 H 0.0 **** 0.0
22263 H91 27.3153 64.0683 89.2283 H 0.0 **** 0.0
22264 H92 22.7478 66.7349 97.72 H 0.0 **** 0.0
22265 H93 20.4032 70.6465 102.316 H 0.0 **** 0.0
22266 H94 18.9186 71.1604 104.108 H 0.0 **** 0.0
22267 H95 17.7454 71.0017 102.787 H 0.0 **** 0.0
22268 H96 18.3287 72.651 103.302 H 0.0 **** 0.0
22269 H97 16.5818 73.4897 92.7753 H 0.0 **** 0.0
22270 H98 25.0044 75.3206 91.6716 H 0.0 **** 0.0
22271 H99 15.7671 73.1962 100.092 H 0.0 **** 0.0
22272 H100 21.1836 72.6467 94.4845 H 0.0 **** 0.0
22273 H101 24.3911 73.3945 93.4481 H 0.0 **** 0.0
22274 H102 20.3924 72.3995 102.418 H 0.0 **** 0.0
22275 C1 91.6948 15.118 100.792 C 0.0 **** 0.0
22276 C2 92.1343 14.9293 102.086 C 0.0 **** 0.0
22277 C3 93.4212 15.3233 102.418 C 0.0 **** 0.0
22278 C4 94.2403 15.9673 101.532 C 0.0 **** 0.0
22279 C5 93.8367 16.0616 100.171 C 0.0 **** 0.0
22280 C6 92.5747 15.5684 99.7889 C 0.0 **** 0.0
22281 C7 95.4477 16.3869 102.269 C 0.0 **** 0.0
22282 C8 95.3147 15.9876 103.566 C 0.0 **** 0.0
22283 C9 94.009 15.2699 103.776 C 0.0 **** 0.0
22284 C10 96.2504 16.3632 104.544 C 0.0 **** 0.0
22285 C11 97.322 17.2393 104.133 C 0.0 **** 0.0
22286 C12 97.315 17.7991 102.809 C 0.0 **** 0.0
22287 C13 96.4721 17.2561 101.852 C 0.0 **** 0.0
22288 C14 96.6105 17.7002 100.417 C 0.0 **** 0.0
22289 C15 97.986 18.2505 100.083 C 0.0 **** 0.0
22290 C16 98.3983 19.3694 101.038 C 0.0 **** 0.0
22291 C17 98.3125 18.8778 102.479 C 0.0 **** 0.0
22292 C18 99.0376 19.4911 103.537 C 0.0 **** 0.0
22293 C19 98.9748 18.931 104.819 C 0.0 **** 0.0
22294 C20 98.2578 17.7031 105.097 C 0.0 **** 0.0
22295 C21 98.3058 17.0139 106.343 C 0.0 **** 0.0
22296 C22 97.2016 16.2853 106.789 C 0.0 **** 0.0
22297 C23 96.1508 15.9997 105.925 C 0.0 **** 0.0
22298 C24 99.3152 19.8801 105.981 C 0.0 **** 0.0
22299 C25 100.581 20.6164 105.727 C 0.0 **** 0.0
22300 C26 100.891 20.9998 104.377 C 0.0 **** 0.0
22301 C27 99.9338 20.6901 103.221 C 0.0 **** 0.0
22302 C28 102.137 21.6789 104.117 C 0.0 **** 0.0
22303 C29 103.043 21.8963 105.18 C 0.0 **** 0.0
22304 C30 102.606 21.6602 106.503 C 0.0 **** 0.0
22305 C31 101.363 21.0583 106.798 C 0.0 **** 0.0
22306 C32 103.525 21.9721 107.647 C 0.0 **** 0.0
22307 C33 104.846 22.5789 107.398 C 0.0 **** 0.0
22308 C34 105.366 22.003 106.071 C 0.0 **** 0.0
22309 C35 104.389 22.5629 104.971 C 0.0 **** 0.0
22310 C36 101.009 20.8505 108.16 C 0.0 **** 0.0
22311 C37 101.92 20.9957 109.197 C 0.0 **** 0.0
22312 C38 103.203 21.4954 108.947 C 0.0 **** 0.0
22313 C39 97.3427 15.8922 108.24 C 0.0 **** 0.0
22314 C40 98.7478 16.3468 108.446 C 0.0 **** 0.0
22315 C41 99.286 16.9164 107.31 C 0.0 **** 0.0
22316 C42 100.626 17.3364 107.293 C 0.0 **** 0.0
22317 C43 101.367 17.3802 108.482 C 0.0 **** 0.0
22318 C44 100.776 16.8535 109.677 C 0.0 **** 0.0
22319 C45 99.4406 16.373 109.682 C 0.0 **** 0.0
22320 C46 98.8076 16.0071 110.901 C 0.0 **** 0.0
22321 C47 99.4872 16.2298 112.106 C 0.0 **** 0.0
22322 C48 100.844 16.6346 112.118 C 0.0 **** 0.0
22323 C49 101.525 16.9037 110.92 C 0.0 **** 0.0
22324 C50 102.86 17.3462 110.908 C 0.0 **** 0.0
22325 C51 103.44 17.8234 109.738 C 0.0 **** 0.0
22326 C52 102.663 17.8533 108.517 C 0.0 **** 0.0
22327 O53 90.3754 14.7437 100.446 O 0.0 **** 0.0
22328 C54 92.0921 15.4937 98.3705 C 0.0 **** 0.0
22329 O55 95.0538 15.2767 106.401 O 0.0 **** 0.0
22330 C56 98.8688 15.8481 113.427 C 0.0 **** 0.0
22331 C57 99.0272 16.9722 114.503 C 0.0 **** 0.0
22332 O58 101.668 20.4635 110.446 O 0.0 **** 0.0
22333 O59 102.494 22.1728 102.858 O 0.0 **** 0.0
22334 O60 103.623 17.3959 112.062 O 0.0 **** 0.0
22335 H61 91.511 14.4204 102.838 H 0.0 **** 0.0
22336 H62 94.4987 16.3981 99.3772 H 0.0 **** 0.0
22337 H63 94.0769 14.231 104.181 H 0.0 **** 0.0
22338 H64 93.4208 15.9175 104.422 H 0.0 **** 0.0
22339 H65 96.5264 16.8638 99.7414 H 0.0 **** 0.0
22340 H66 95.8429 18.4104 100.166 H 0.0 **** 0.0
22341 H67 98.7388 17.4083 100.264 H 0.0 **** 0.0
22342 H68 98.0796 18.5871 98.9906 H 0.0 **** 0.0
22343 H69 99.4615 19.5599 100.764 H 0.0 **** 0.0
22344 H70 97.7709 20.272 100.87 H 0.0 **** 0.0
22345 H71 98.4614 20.6189 105.964 H 0.0 **** 0.0
22346 H72 99.3481 21.6007 102.935 H 0.0 **** 0.0
22347 H73 104.664 23.6773 107.323 H 0.0 **** 0.0
22348 H74 105.556 22.3375 108.219 H 0.0 **** 0.0
22349 H75 106.369 22.3749 105.832 H 0.0 **** 0.0
22350 H76 105.302 20.8816 106.063 H 0.0 **** 0.0
22351 H77 104.22 23.6753 105.039 H 0.0 **** 0.0
22352 H78 104.824 22.4176 103.948 H 0.0 **** 0.0
22353 H79 100.12 20.367 108.497 H 0.0 **** 0.0
22354 H80 103.895 21.5272 109.767 H 0.0 **** 0.0
22355 H81 96.7139 16.5298 108.933 H 0.0 **** 0.0
22356 H82 97.295 14.7822 108.434 H 0.0 **** 0.0
22357 H83 101.029 17.6973 106.348 H 0.0 **** 0.0
22358 H84 97.8199 15.5562 110.903 H 0.0 **** 0.0
22359 H85 101.339 16.717 113.047 H 0.0 **** 0.0
22360 H86 104.424 18.2871 109.766 H 0.0 **** 0.0
22361 H87 103.055 18.3581 107.646 H 0.0 **** 0.0
22362 H88 89.7487 14.7234 101.19 H 0.0 **** 0.0
22363 H89 92.8296 15.9807 97.684 H 0.0 **** 0.0
22364 H90 91.1163 16.0022 98.2166 H 0.0 **** 0.0
22365 H91 91.9465 14.4314 98.1084 H 0.0 **** 0.0
22366 H92 94.9571 15.3209 107.402 H 0.0 **** 0.0
22367 H93 97.7649 15.7541 113.234 H 0.0 **** 0.0
22368 H94 100.06 16.9844 114.937 H 0.0 **** 0.0
22369 H95 98.3817 16.7345 115.377 H 0.0 **** 0.0
22370 H96 98.8061 18.0102 114.101 H 0.0 **** 0.0
22371 H97 100.744 20.0214 110.567 H 0.0 **** 0.0
22372 H98 101.811 22.1102 102.148 H 0.0 **** 0.0
22373 H99 103.453 16.6011 112.618 H 0.0 **** 0.0
22374 H100 99.2157 19.439 106.962 H 0.0 **** 0.0
22375 H101 100.552 20.4194 102.375 H 0.0 **** 0.0
22376 H102 99.3235 14.9329 113.838 H 0.0 **** 0.0
22377 C1 44.3935 16.8913 91.237 C 0.0 **** 0.0
22378 C2 43.1311 16.7839 90.6211 C 0.0 **** 0.0
22379 C3 42.8376 17.5595 89.5146 C 0.0 **** 0.0
22380 C4 43.7109 18.5156 89.11 C 0.0 **** 0.0
22381 C5 44.9135 18.7601 89.8241 C 0.0 **** 0.0
22382 C6 45.3098 17.8788 90.8297 C 0.0 **** 0.0
22383 C7 43.1746 19.1294 87.8822 C 0.0 **** 0.0
22384 C8 41.9634 18.5241 87.6102 C 0.0 **** 0.0
22385 C9 41.6421 17.4486 88.6173 C 0.0 **** 0.0
22386 C10 41.1158 18.982 86.5885 C 0.0 **** 0.0
22387 C11 41.5808 20.0447 85.6946 C 0.0 **** 0.0
22388 C12 42.814 20.7038 86.011 C 0.0 **** 0.0
22389 C13 43.5413 20.3015 87.1806 C 0.0 **** 0.0
22390 C14 44.6706 21.1816 87.7245 C 0.0 **** 0.0
22391 C15 44.7236 22.5632 87.0383 C 0.0 **** 0.0
22392 C16 44.6429 22.4411 85.4753 C 0.0 **** 0.0
22393 C17 43.3357 21.7854 85.0417 C 0.0 **** 0.0
22394 C18 42.7565 21.8744 83.7711 C 0.0 **** 0.0
22395 C19 41.5959 21.1269 83.5029 C 0.0 **** 0.0
22396 C20 40.9075 20.4021 84.5294 C 0.0 **** 0.0
22397 C21 39.5289 19.9864 84.4489 C 0.0 **** 0.0
22398 C22 39.0365 19.1021 85.3911 C 0.0 **** 0.0
22399 C23 39.8573 18.5013 86.4209 C 0.0 **** 0.0
22400 C24 41.2955 20.7035 82.0458 C 0.0 **** 0.0
22401 C25 41.7663 21.7239 80.9719 C 0.0 **** 0.0
22402 C26 42.7085 22.735 81.3604 C 0.0 **** 0.0
22403 C27 43.3086 22.7752 82.7428 C 0.0 **** 0.0
22404 C28 43.1361 23.7087 80.3832 C 0.0 **** 0.0
22405 C29 42.5752 23.6613 79.0987 C 0.0 **** 0.0
22406 C30 41.7828 22.594 78.6688 C 0.0 **** 0.0
22407 C31 41.2973 21.6641 79.6067 C 0.0 **** 0.0
22408 C32 41.2735 22.5268 77.2613 C 0.0 **** 0.0
22409 C33 41.9288 23.3842 76.2094 C 0.0 **** 0.0
22410 C34 42.2026 24.7763 76.8056 C 0.0 **** 0.0
22411 C35 43.1151 24.6415 78.049 C 0.0 **** 0.0
22412 C36 40.4681 20.6159 79.1784 C 0.0 **** 0.0
22413 C37 39.9111 20.6328 77.864 C 0.0 **** 0.0
22414 C38 40.2879 21.6334 76.9592 C 0.0 **** 0.0
22415 C39 37.5742 18.8043 85.2229 C 0.0 **** 0.0
22416 C40 37.2578 19.8748 84.2776 C 0.0 **** 0.0
22417 C41 38.4386 20.5311 83.8726 C 0.0 **** 0.0
22418 C42 38.3577 21.7209 83.0588 C 0.0 **** 0.0
22419 C43 37.0843 22.0995 82.6245 C 0.0 **** 0.0
22420 C44 35.912 21.4624 83.0523 C 0.0 **** 0.0
22421 C45 35.991 20.3112 83.8675 C 0.0 **** 0.0
22422 C46 34.8359 19.534 84.1652 C 0.0 **** 0.0
22423 C47 33.5892 20.0184 83.6977 C 0.0 **** 0.0
22424 C48 33.5068 21.2028 82.9341 C 0.0 **** 0.0
22425 C49 34.6619 21.9219 82.6348 C 0.0 **** 0.0
22426 C50 34.6173 23.0573 81.7733 C 0.0 **** 0.0
22427 C51 35.7927 23.6236 81.313 C 0.0 **** 0.0
22428 C52 37.0224 23.2003 81.7801 C 0.0 **** 0.0
22429 O53 44.8162 15.9656 92.178 O 0.0 **** 0.0
22430 C54 46.7593 17.8914 91.3724 C 0.0 **** 0.0
22431 O55 39.3153 17.5869 87.3379 O 0.0 **** 0.0
22432 C56 32.3201 19.245 83.9654 C 0.0 **** 0.0
22433 C57 32.0933 18.1711 82.8444 C 0.0 **** 0.0
22434 O58 38.8621 19.7779 77.4909 O 0.0 **** 0.0
22435 O59 44.1977 24.611 80.5943 O 0.0 **** 0.0
22436 O60 33.4557 23.7139 81.484 O 0.0 **** 0.0
22437 H61 42.4071 16.0271 90.9966 H 0.0 **** 0.0
22438 H62 45.6242 19.5178 89.531 H 0.0 **** 0.0
22439 H63 40.7116 17.695 89.189 H 0.0 **** 0.0
22440 H64 41.6218 16.4442 88.1166 H 0.0 **** 0.0
22441 H65 44.5701 21.3795 88.795 H 0.0 **** 0.0
22442 H66 45.6577 20.7179 87.5984 H 0.0 **** 0.0
22443 H67 43.8909 23.181 87.3561 H 0.0 **** 0.0
22444 H68 45.5774 23.1515 87.3139 H 0.0 **** 0.0
22445 H69 44.6932 23.4674 85.0095 H 0.0 **** 0.0
22446 H70 45.5138 21.8321 85.0649 H 0.0 **** 0.0
22447 H71 41.8806 19.7772 81.7902 H 0.0 **** 0.0
22448 H72 44.4 22.5476 82.6079 H 0.0 **** 0.0
22449 H73 42.8958 22.9213 75.9472 H 0.0 **** 0.0
22450 H74 41.2739 23.5094 75.3219 H 0.0 **** 0.0
22451 H75 42.6386 25.4682 76.0764 H 0.0 **** 0.0
22452 H76 41.2335 25.265 77.1217 H 0.0 **** 0.0
22453 H77 44.1497 24.2953 77.7003 H 0.0 **** 0.0
22454 H78 43.217 25.6818 78.4612 H 0.0 **** 0.0
22455 H79 40.1251 19.8543 79.818 H 0.0 **** 0.0
22456 H80 39.8169 21.632 75.9837 H 0.0 **** 0.0
22457 H81 37.3838 17.8066 84.8493 H 0.0 **** 0.0
22458 H82 37.0634 18.9146 86.1772 H 0.0 **** 0.0
22459 H83 39.2019 22.3108 82.7584 H 0.0 **** 0.0
22460 H84 34.875 18.631 84.7547 H 0.0 **** 0.0
22461 H85 32.5101 21.5164 82.6467 H 0.0 **** 0.0
22462 H86 35.7336 24.4969 80.6092 H 0.0 **** 0.0
22463 H87 37.8853 23.6635 81.45 H 0.0 **** 0.0
22464 H88 44.1366 15.2087 92.3136 H 0.0 **** 0.0
22465 H89 46.9024 17.3294 92.3228 H 0.0 **** 0.0
22466 H90 47.0284 18.9179 91.6079 H 0.0 **** 0.0
22467 H91 47.4948 17.528 90.5907 H 0.0 **** 0.0
22468 H92 38.4378 17.1908 87.0275 H 0.0 **** 0.0
22469 H93 32.3865 18.7709 84.9425 H 0.0 **** 0.0
22470 H94 31.118 17.6846 82.9596 H 0.0 **** 0.0
22471 H95 32.8588 17.3764 82.8646 H 0.0 **** 0.0
22472 H96 32.0991 18.5966 81.8503 H 0.0 **** 0.0
22473 H97 38.6041 19.1001 78.1983 H 0.0 **** 0.0
22474 H98 44.7922 24.3931 81.3692 H 0.0 **** 0.0
22475 H99 32.7808 23.5969 82.1748 H 0.0 **** 0.0
22476 H100 40.2371 20.4359 81.9024 H 0.0 **** 0.0
22477 H101 43.2525 23.7864 83.1691 H 0.0 **** 0.0
22478 H102 31.4316 19.8995 84.0589 H 0.0 **** 0.0
22479 C1 3.2465 105.994 89.3868 C 0.0 **** 0.0
22480 C2 3.84765 104.792 89.7531 C 0.0 **** 0.0
22481 C3 3.68686 103.666 88.9213 C 0.0 **** 0.0
22482 C4 2.91217 103.722 87.7688 C 0.0 **** 0.0
22483 C5 2.4197 104.934 87.3162 C 0.0 **** 0.0
22484 C6 2.56466 106.087 88.1304 C 0.0 **** 0.0
22485 C7 2.98766 102.39 87.1206 C 0.0 **** 0.0
22486 C8 3.87376 101.614 87.8893 C 0.0 **** 0.0
22487 C9 4.38117 102.387 89.0689 C 0.0 **** 0.0
22488 C10 4.22793 100.299 87.5419 C 0.0 **** 0.0
22489 C11 3.59408 99.6935 86.4465 C 0.0 **** 0.0
22490 C12 2.58127 100.417 85.7264 C 0.0 **** 0.0
22491 C13 2.27845 101.784 86.0283 C 0.0 **** 0.0
22492 C14 1.16995 102.51 85.2923 C 0.0 **** 0.0
22493 C15 0.16432 101.541 84.7321 C 0.0 **** 0.0
22494 C16 0.825823 100.515 83.8176 C 0.0 **** 0.0
22495 C17 1.90409 99.7673 84.572 C 0.0 **** 0.0
22496 C18 2.35475 98.4879 84.1782 C 0.0 **** 0.0
22497 C19 3.42838 97.8822 84.8486 C 0.0 **** 0.0
22498 C20 3.79168 98.3145 86.13 C 0.0 **** 0.0
22499 C21 4.5718 97.5387 87.0419 C 0.0 **** 0.0
22500 C22 5.19771 98.162 88.0863 C 0.0 **** 0.0
22501 C23 5.11415 99.5534 88.3066 C 0.0 **** 0.0
22502 C24 4.1876 96.8094 84.0928 C 0.0 **** 0.0
22503 C25 3.27216 95.859 83.4013 C 0.0 **** 0.0
22504 C26 2.06806 96.349 82.9136 C 0.0 **** 0.0
22505 C27 1.78603 97.8178 82.9543 C 0.0 **** 0.0
22506 C28 1.05581 95.4121 82.5305 C 0.0 **** 0.0
22507 C29 1.21666 94.0489 82.8251 C 0.0 **** 0.0
22508 C30 2.52945 93.5896 83.1018 C 0.0 **** 0.0
22509 C31 3.57802 94.5054 83.3134 C 0.0 **** 0.0
22510 C32 2.85979 92.1409 82.9389 C 0.0 **** 0.0
22511 C33 1.79141 91.1595 82.718 C 0.0 **** 0.0
22512 C34 0.441075 91.6763 83.2482 C 0.0 **** 0.0
22513 C35 0.0814443 93.0604 82.6425 C 0.0 **** 0.0
22514 C36 4.90609 94.0146 83.444 C 0.0 **** 0.0
22515 C37 5.2217 92.6929 83.0407 C 0.0 **** 0.0
22516 C38 4.21966 91.7542 82.869 C 0.0 **** 0.0
22517 C39 6.00096 97.2228 88.913 C 0.0 **** 0.0
22518 C40 5.63089 95.9713 88.2244 C 0.0 **** 0.0
22519 C41 4.67556 96.1543 87.2585 C 0.0 **** 0.0
22520 C42 3.94278 95.0481 86.761 C 0.0 **** 0.0
22521 C43 4.31841 93.7436 87.1944 C 0.0 **** 0.0
22522 C44 5.42822 93.5781 88.024 C 0.0 **** 0.0
22523 C45 6.08335 94.7019 88.5914 C 0.0 **** 0.0
22524 C46 7.20865 94.535 89.4109 C 0.0 **** 0.0
22525 C47 7.79847 93.2721 89.6274 C 0.0 **** 0.0
22526 C48 7.16085 92.1575 89.1073 C 0.0 **** 0.0
22527 C49 5.95528 92.2796 88.3107 C 0.0 **** 0.0
22528 C50 5.23865 91.1531 87.9025 C 0.0 **** 0.0
22529 C51 4.00799 91.3363 87.2131 C 0.0 **** 0.0
22530 C52 3.61557 92.62 86.7927 C 0.0 **** 0.0
22531 O53 3.52069 107.17 90.1583 O 0.0 **** 0.0
22532 C54 2.00994 107.409 87.6388 C 0.0 **** 0.0
22533 O55 5.96953 100.181 89.2218 O 0.0 **** 0.0
22534 C56 9.12867 93.0789 90.3689 C 0.0 **** 0.0
22535 C57 9.41611 94.0508 91.5173 C 0.0 **** 0.0
22536 O58 6.52726 92.331 82.6864 O 0.0 **** 0.0
22537 O59 -0.0463275 95.794 81.737 O 0.0 **** 0.0
22538 O60 5.66137 89.827 88.084 O 0.0 **** 0.0
22539 H61 4.51223 104.699 90.5937 H 0.0 **** 0.0
22540 H62 1.87263 104.982 86.4168 H 0.0 **** 0.0
22541 H63 4.14082 101.918 90.0603 H 0.0 **** 0.0
22542 H64 5.47758 102.577 89.0152 H 0.0 **** 0.0
22543 H65 0.617929 103.167 85.9743 H 0.0 **** 0.0
22544 H66 1.53508 103.187 84.5087 H 0.0 **** 0.0
22545 H67 -0.425149 101.04 85.5041 H 0.0 **** 0.0
22546 H68 -0.595723 102.131 84.1004 H 0.0 **** 0.0
22547 H69 -0.00415363 99.8516 83.4668 H 0.0 **** 0.0
22548 H70 1.2579 101.027 82.9293 H 0.0 **** 0.0
22549 H71 4.79801 97.2361 83.2564 H 0.0 **** 0.0
22550 H72 2.1437 98.2757 82.0178 H 0.0 **** 0.0
22551 H73 1.72993 90.9088 81.649 H 0.0 **** 0.0
22552 H74 1.9237 90.1893 83.2522 H 0.0 **** 0.0
22553 H75 -0.32824 90.9431 82.9821 H 0.0 **** 0.0
22554 H76 0.515724 91.7071 84.3789 H 0.0 **** 0.0
22555 H77 -0.148868 92.9935 81.5747 H 0.0 **** 0.0
22556 H78 -0.823164 93.4284 83.1658 H 0.0 **** 0.0
22557 H79 5.73675 94.6859 83.6129 H 0.0 **** 0.0
22558 H80 4.43336 90.7413 82.5589 H 0.0 **** 0.0
22559 H81 7.06473 97.4688 88.8138 H 0.0 **** 0.0
22560 H82 5.61966 97.1408 89.9467 H 0.0 **** 0.0
22561 H83 3.22096 95.205 86.033 H 0.0 **** 0.0
22562 H84 7.66289 95.3873 89.8329 H 0.0 **** 0.0
22563 H85 7.66173 91.2614 89.2235 H 0.0 **** 0.0
22564 H86 3.4404 90.4785 86.8488 H 0.0 **** 0.0
22565 H87 2.71254 92.7511 86.1274 H 0.0 **** 0.0
22566 H88 3.8888 106.99 91.106 H 0.0 **** 0.0
22567 H89 1.39495 107.219 86.7171 H 0.0 **** 0.0
22568 H90 2.82407 108.105 87.3577 H 0.0 **** 0.0
22569 H91 1.43063 107.845 88.4103 H 0.0 **** 0.0
22570 H92 6.59509 99.5634 89.7373 H 0.0 **** 0.0
22571 H93 9.13095 92.0268 90.7231 H 0.0 **** 0.0
22572 H94 8.55553 94.0634 92.1842 H 0.0 **** 0.0
22573 H95 9.61032 95.1002 91.1753 H 0.0 **** 0.0
22574 H96 10.3096 93.6261 92.0489 H 0.0 **** 0.0
22575 H97 7.21128 92.9781 83.0362 H 0.0 **** 0.0
22576 H98 0.0104225 96.7096 81.315 H 0.0 **** 0.0
22577 H99 6.12981 89.6555 88.9375 H 0.0 **** 0.0
22578 H100 4.90491 96.3422 84.7494 H 0.0 **** 0.0
22579 H101 0.66797 97.9141 83.0472 H 0.0 **** 0.0
22580 H102 9.97484 93.1639 89.614 H 0.0 **** 0.0
22581 C1 32.8079 -1.00002 0.175936 C 0.0 **** 0.0
22582 C2 32.3767 0.0173613 1.06013 C 0.0 **** 0.0
22583 C3 32.6676 -0.116398 2.43154 C 0.0 **** 0.0
22584 C4 33.277 -1.23993 2.92973 C 0.0 **** 0.0
22585 C5 33.7086 -2.25448 2.05665 C 0.0 **** 0.0
22586 C6 33.4839 -2.1199 0.665863 C 0.0 **** 0.0
22587 C7 33.3765 -1.04556 4.37794 C 0.0 **** 0.0
22588 C8 32.7951 0.175404 4.67723 C 0.0 **** 0.0
22589 C9 32.2183 0.841526 3.47941 C 0.0 **** 0.0
22590 C10 32.7272 0.588144 5.99832 C 0.0 **** 0.0
22591 C11 33.4059 -0.14343 7.02409 C 0.0 **** 0.0
22592 C12 34.1132 -1.28991 6.69548 C 0.0 **** 0.0
22593 C13 34.044 -1.79428 5.38612 C 0.0 **** 0.0
22594 C14 34.6058 -3.18141 5.03812 C 0.0 **** 0.0
22595 C15 34.8946 -4.08597 6.25259 C 0.0 **** 0.0
22596 C16 35.5377 -3.35924 7.40946 C 0.0 **** 0.0
22597 C17 34.9154 -2.00103 7.71647 C 0.0 **** 0.0
22598 C18 35.2463 -1.28123 8.84061 C 0.0 **** 0.0
22599 C19 34.4665 -0.145782 9.20216 C 0.0 **** 0.0
22600 C20 33.3861 0.276704 8.37465 C 0.0 **** 0.0
22601 C21 32.3739 1.18454 8.70435 C 0.0 **** 0.0
22602 C22 31.7061 1.90773 7.77839 C 0.0 **** 0.0
22603 C23 31.8856 1.65578 6.40807 C 0.0 **** 0.0
22604 C24 34.9021 0.784843 10.2489 C 0.0 **** 0.0
22605 C25 36.0073 0.327965 11.1644 C 0.0 **** 0.0
22606 C26 36.7315 -0.868443 10.8401 C 0.0 **** 0.0
22607 C27 36.5313 -1.57119 9.53957 C 0.0 **** 0.0
22608 C28 37.6932 -1.37254 11.7498 C 0.0 **** 0.0
22609 C29 37.8386 -0.772428 13.0323 C 0.0 **** 0.0
22610 C30 37.2805 0.487875 13.2622 C 0.0 **** 0.0
22611 C31 36.3819 1.05664 12.3167 C 0.0 **** 0.0
22612 C32 37.5884 1.26796 14.5049 C 0.0 **** 0.0
22613 C33 38.4128 0.686367 15.6333 C 0.0 **** 0.0
22614 C34 38.299 -0.870708 15.5214 C 0.0 **** 0.0
22615 C35 38.6321 -1.39649 14.1115 C 0.0 **** 0.0
22616 C36 35.9559 2.38317 12.5234 C 0.0 **** 0.0
22617 C37 36.4338 3.18694 13.5747 C 0.0 **** 0.0
22618 C38 37.2846 2.63689 14.539 C 0.0 **** 0.0
22619 C39 30.5768 2.68178 8.35746 C 0.0 **** 0.0
22620 C40 30.5228 2.03254 9.67777 C 0.0 **** 0.0
22621 C41 31.5422 1.14125 9.8258 C 0.0 **** 0.0
22622 C42 31.5608 0.22303 10.8823 C 0.0 **** 0.0
22623 C43 30.4738 0.179956 11.7945 C 0.0 **** 0.0
22624 C44 29.4312 1.15011 11.6188 C 0.0 **** 0.0
22625 C45 29.481 2.13781 10.5809 C 0.0 **** 0.0
22626 C46 28.479 3.03866 10.4246 C 0.0 **** 0.0
22627 C47 27.4164 3.00193 11.314 C 0.0 **** 0.0
22628 C48 27.3154 2.02953 12.3066 C 0.0 **** 0.0
22629 C49 28.3163 1.07907 12.4839 C 0.0 **** 0.0
22630 C50 28.3324 0.207832 13.6331 C 0.0 **** 0.0
22631 C51 29.4025 -0.685458 13.7675 C 0.0 **** 0.0
22632 C52 30.4793 -0.730906 12.8744 C 0.0 **** 0.0
22633 O53 32.7275 -0.754668 -1.23469 O 0.0 **** 0.0
22634 C54 33.888 -3.20802 -0.294371 C 0.0 **** 0.0
22635 O55 31.1039 2.36979 5.51017 O 0.0 **** 0.0
22636 C56 26.3057 4.01223 11.1989 C 0.0 **** 0.0
22637 C57 25.0774 3.36784 10.5619 C 0.0 **** 0.0
22638 O58 35.9976 4.53062 13.7504 O 0.0 **** 0.0
22639 O59 38.4008 -2.56517 11.3906 O 0.0 **** 0.0
22640 O60 27.3874 0.240676 14.6925 O 0.0 **** 0.0
22641 H61 31.9263 0.930427 0.628768 H 0.0 **** 0.0
22642 H62 34.2322 -3.21152 2.37256 H 0.0 **** 0.0
22643 H63 31.1001 0.785036 3.51781 H 0.0 **** 0.0
22644 H64 32.6256 1.85921 3.37764 H 0.0 **** 0.0
22645 H65 33.8449 -3.7167 4.45003 H 0.0 **** 0.0
22646 H66 35.5367 -3.14091 4.4249 H 0.0 **** 0.0
22647 H67 33.8833 -4.45933 6.65697 H 0.0 **** 0.0
22648 H68 35.4353 -4.9767 5.95052 H 0.0 **** 0.0
22649 H69 35.4032 -4.00346 8.32821 H 0.0 **** 0.0
22650 H70 36.6072 -3.22571 7.25981 H 0.0 **** 0.0
22651 H71 35.3021 1.69181 9.73339 H 0.0 **** 0.0
22652 H72 37.3088 -1.26415 8.81845 H 0.0 **** 0.0
22653 H73 39.4335 0.972102 15.4584 H 0.0 **** 0.0
22654 H74 38.0677 0.993046 16.6215 H 0.0 **** 0.0
22655 H75 38.9437 -1.34629 16.2691 H 0.0 **** 0.0
22656 H76 37.2869 -1.21885 15.8869 H 0.0 **** 0.0
22657 H77 39.7002 -1.27924 13.8945 H 0.0 **** 0.0
22658 H78 38.4025 -2.44932 14.1342 H 0.0 **** 0.0
22659 H79 35.2298 2.80982 11.866 H 0.0 **** 0.0
22660 H80 37.6107 3.28097 15.361 H 0.0 **** 0.0
22661 H81 29.63 2.46882 7.7598 H 0.0 **** 0.0
22662 H82 30.8069 3.74971 8.54792 H 0.0 **** 0.0
22663 H83 32.3722 -0.494433 10.9606 H 0.0 **** 0.0
22664 H84 28.5302 3.82847 9.56018 H 0.0 **** 0.0
22665 H85 26.4085 2.05553 12.8422 H 0.0 **** 0.0
22666 H86 29.4152 -1.30055 14.672 H 0.0 **** 0.0
22667 H87 31.2918 -1.40262 13.0236 H 0.0 **** 0.0
22668 H88 32.4628 0.192403 -1.46303 H 0.0 **** 0.0
22669 H89 32.95 -3.70915 -0.579683 H 0.0 **** 0.0
22670 H90 34.6244 -3.89592 0.197967 H 0.0 **** 0.0
22671 H91 34.3492 -2.8118 -1.25609 H 0.0 **** 0.0
22672 H92 30.858 3.36741 5.70949 H 0.0 **** 0.0
22673 H93 26.0461 4.45608 12.2103 H 0.0 **** 0.0
22674 H94 24.7866 2.46181 11.1477 H 0.0 **** 0.0
22675 H95 25.3829 3.00094 9.54466 H 0.0 **** 0.0
22676 H96 24.2519 4.11097 10.581 H 0.0 **** 0.0
22677 H97 35.4401 4.89274 12.9547 H 0.0 **** 0.0
22678 H98 39.035 -2.92905 12.1005 H 0.0 **** 0.0
22679 H99 26.5732 0.857936 14.5649 H 0.0 **** 0.0
22680 H100 34.0505 1.10786 10.867 H 0.0 **** 0.0
22681 H101 36.6139 -2.67415 9.71391 H 0.0 **** 0.0
22682 H102 26.6493 4.87135 10.6156 H 0.0 **** 0.0
22683 C1 21.5026 70.3428 71.7441 C 0.0 **** 0.0
22684 C2 21.7773 70.3916 73.1223 C 0.0 **** 0.0
22685 C3 21.5702 69.2385 73.9279 C 0.0 **** 0.0
22686 C4 21.113 68.0699 73.3683 C 0.0 **** 0.0
22687 C5 20.911 67.9466 71.9662 C 0.0 **** 0.0
22688 C6 21.0924 69.1135 71.1759 C 0.0 **** 0.0
22689 C7 21.1737 67.0585 74.4561 C 0.0 **** 0.0
22690 C8 21.7559 67.6055 75.5696 C 0.0 **** 0.0
22691 C9 21.9861 69.0756 75.3355 C 0.0 **** 0.0
22692 C10 22.0688 66.8542 76.7062 C 0.0 **** 0.0
22693 C11 21.8391 65.4391 76.6392 C 0.0 **** 0.0
22694 C12 21.2977 64.8682 75.5005 C 0.0 **** 0.0
22695 C13 20.9111 65.675 74.4066 C 0.0 **** 0.0
22696 C14 20.1839 65.0591 73.2635 C 0.0 **** 0.0
22697 C15 19.3782 63.8759 73.7356 C 0.0 **** 0.0
22698 C16 20.2421 62.8253 74.3722 C 0.0 **** 0.0
22699 C17 21.1406 63.4037 75.4316 C 0.0 **** 0.0
22700 C18 21.8142 62.5945 76.3704 C 0.0 **** 0.0
22701 C19 22.4186 63.1978 77.4933 C 0.0 **** 0.0
22702 C20 22.2347 64.6027 77.7265 C 0.0 **** 0.0
22703 C21 22.24 65.2258 78.9861 C 0.0 **** 0.0
22704 C22 22.3623 66.624 79.0694 C 0.0 **** 0.0
22705 C23 22.4455 67.4097 77.9201 C 0.0 **** 0.0
22706 C24 23.3091 62.3436 78.3552 C 0.0 **** 0.0
22707 C25 22.9345 60.8962 78.4065 C 0.0 **** 0.0
22708 C26 22.232 60.3158 77.3238 C 0.0 **** 0.0
22709 C27 21.8149 61.1436 76.1655 C 0.0 **** 0.0
22710 C28 21.9319 58.9704 77.3962 C 0.0 **** 0.0
22711 C29 22.1808 58.2089 78.5677 C 0.0 **** 0.0
22712 C30 22.9833 58.7461 79.573 C 0.0 **** 0.0
22713 C31 23.4619 60.0596 79.415 C 0.0 **** 0.0
22714 C32 23.5119 57.8813 80.6474 C 0.0 **** 0.0
22715 C33 23.05 56.4621 80.8509 C 0.0 **** 0.0
22716 C34 21.7469 56.1661 80.0642 C 0.0 **** 0.0
22717 C35 21.7784 56.7494 78.6447 C 0.0 **** 0.0
22718 C36 24.5738 60.4475 80.1957 C 0.0 **** 0.0
22719 C37 25.1712 59.5779 81.1417 C 0.0 **** 0.0
22720 C38 24.5997 58.3367 81.415 C 0.0 **** 0.0
22721 C39 21.9322 67.095 80.4205 C 0.0 **** 0.0
22722 C40 21.4557 65.7968 81.0298 C 0.0 **** 0.0
22723 C41 21.6406 64.7605 80.1433 C 0.0 **** 0.0
22724 C42 21.0764 63.4925 80.4021 C 0.0 **** 0.0
22725 C43 20.4152 63.2898 81.6266 C 0.0 **** 0.0
22726 C44 20.153 64.3826 82.5312 C 0.0 **** 0.0
22727 C45 20.5538 65.6744 82.1206 C 0.0 **** 0.0
22728 C46 19.9407 66.7904 82.6451 C 0.0 **** 0.0
22729 C47 18.9438 66.6471 83.6048 C 0.0 **** 0.0
22730 C48 18.6669 65.3617 84.1653 C 0.0 **** 0.0
22731 C49 19.3439 64.2185 83.6816 C 0.0 **** 0.0
22732 C50 19.0631 62.8741 84.0415 C 0.0 **** 0.0
22733 C51 19.3756 61.8233 83.1554 C 0.0 **** 0.0
22734 C52 19.9359 62.0087 81.9085 C 0.0 **** 0.0
22735 O53 21.5834 71.5009 70.9518 O 0.0 **** 0.0
22736 C54 20.9467 69.0448 69.6817 C 0.0 **** 0.0
22737 O55 22.6383 68.7799 77.9356 O 0.0 **** 0.0
22738 C56 18.1751 67.8977 84.013 C 0.0 **** 0.0
22739 C57 18.4263 68.2039 85.4799 C 0.0 **** 0.0
22740 O58 26.2823 60.0241 81.9225 O 0.0 **** 0.0
22741 O59 21.5055 58.2917 76.2534 O 0.0 **** 0.0
22742 O60 18.4812 62.5034 85.2623 O 0.0 **** 0.0
22743 H61 22.1167 71.3324 73.5678 H 0.0 **** 0.0
22744 H62 20.7172 67.0026 71.4859 H 0.0 **** 0.0
22745 H63 21.3509 69.6872 75.9526 H 0.0 **** 0.0
22746 H64 23.051 69.3431 75.469 H 0.0 **** 0.0
22747 H65 19.4312 65.748 72.8597 H 0.0 **** 0.0
22748 H66 20.9132 64.7196 72.5196 H 0.0 **** 0.0
22749 H67 18.6148 64.2806 74.4274 H 0.0 **** 0.0
22750 H68 18.8891 63.4521 72.8249 H 0.0 **** 0.0
22751 H69 19.4938 62.1129 74.8272 H 0.0 **** 0.0
22752 H70 20.7404 62.2642 73.5584 H 0.0 **** 0.0
22753 H71 24.3803 62.4096 77.9376 H 0.0 **** 0.0
22754 H72 22.465 60.9027 75.2811 H 0.0 **** 0.0
22755 H73 23.7922 55.709 80.4767 H 0.0 **** 0.0
22756 H74 22.8419 56.3189 81.9284 H 0.0 **** 0.0
22757 H75 21.5236 55.0438 80.0566 H 0.0 **** 0.0
22758 H76 20.9041 56.6884 80.6066 H 0.0 **** 0.0
22759 H77 22.429 56.1389 77.9876 H 0.0 **** 0.0
22760 H78 20.7232 56.6898 78.2822 H 0.0 **** 0.0
22761 H79 25.0803 61.3981 80.0595 H 0.0 **** 0.0
22762 H80 25.0335 57.7341 82.1797 H 0.0 **** 0.0
22763 H81 22.7623 67.5186 80.9736 H 0.0 **** 0.0
22764 H82 21.118 67.8074 80.2707 H 0.0 **** 0.0
22765 H83 21.0708 62.7476 79.6243 H 0.0 **** 0.0
22766 H84 20.2429 67.7938 82.322 H 0.0 **** 0.0
22767 H85 17.8907 65.3256 84.8743 H 0.0 **** 0.0
22768 H86 19.0528 60.8248 83.4797 H 0.0 **** 0.0
22769 H87 20.0602 61.1964 81.2043 H 0.0 **** 0.0
22770 H88 21.765 72.3102 71.5234 H 0.0 **** 0.0
22771 H89 20.9995 68.0037 69.3833 H 0.0 **** 0.0
22772 H90 21.7464 69.6985 69.1894 H 0.0 **** 0.0
22773 H91 19.9236 69.4345 69.3926 H 0.0 **** 0.0
22774 H92 22.6714 69.2126 78.8494 H 0.0 **** 0.0
22775 H93 18.4612 68.7766 83.4094 H 0.0 **** 0.0
22776 H94 18.0572 69.2461 85.7357 H 0.0 **** 0.0
22777 H95 19.4996 68.1721 85.6278 H 0.0 **** 0.0
22778 H96 17.9057 67.446 86.1071 H 0.0 **** 0.0
22779 H97 26.5632 60.9708 81.6641 H 0.0 **** 0.0
22780 H98 21.9165 58.6205 75.3811 H 0.0 **** 0.0
22781 H99 18.3274 63.294 85.8733 H 0.0 **** 0.0
22782 H100 23.3876 62.6952 79.3905 H 0.0 **** 0.0
22783 H101 20.818 60.7817 75.9164 H 0.0 **** 0.0
22784 H102 17.0791 67.6819 83.8209 H 0.0 **** 0.0
22785 C1 39.8257 18.3805 92.8942 C 0.0 **** 0.0
22786 C2 39.0861 18.3086 91.6967 C 0.0 **** 0.0
22787 C3 37.8606 17.662 91.7472 C 0.0 **** 0.0
22788 C4 37.5105 16.8806 92.8054 C 0.0 **** 0.0
22789 C5 38.3538 16.7697 93.9046 C 0.0 **** 0.0
22790 C6 39.482 17.5505 94.0127 C 0.0 **** 0.0
22791 C7 36.1962 16.2869 92.4246 C 0.0 **** 0.0
22792 C8 35.8553 16.815 91.1484 C 0.0 **** 0.0
22793 C9 36.8762 17.7302 90.6272 C 0.0 **** 0.0
22794 C10 34.772 16.3067 90.4385 C 0.0 **** 0.0
22795 C11 33.9143 15.3958 91.0917 C 0.0 **** 0.0
22796 C12 34.1266 14.9833 92.4377 C 0.0 **** 0.0
22797 C13 35.3375 15.4086 93.0913 C 0.0 **** 0.0
22798 C14 35.6932 14.7851 94.3635 C 0.0 **** 0.0
22799 C15 34.8984 13.5019 94.7121 C 0.0 **** 0.0
22800 C16 33.4169 13.667 94.5018 C 0.0 **** 0.0
22801 C17 33.139 14.1024 93.0762 C 0.0 **** 0.0
22802 C18 31.8877 13.8859 92.4256 C 0.0 **** 0.0
22803 C19 31.7274 14.2944 91.1186 C 0.0 **** 0.0
22804 C20 32.7883 14.8432 90.3843 C 0.0 **** 0.0
22805 C21 32.7436 15.0416 88.9898 C 0.0 **** 0.0
22806 C22 33.5296 15.9667 88.3492 C 0.0 **** 0.0
22807 C23 34.5386 16.6295 89.0621 C 0.0 **** 0.0
22808 C24 30.2593 14.6696 90.8101 C 0.0 **** 0.0
22809 C25 29.3154 13.5079 91.0506 C 0.0 **** 0.0
22810 C26 29.5123 12.7886 92.2271 C 0.0 **** 0.0
22811 C27 30.7825 13.063 93.0912 C 0.0 **** 0.0
22812 C28 28.5847 11.7915 92.6016 C 0.0 **** 0.0
22813 C29 27.5213 11.4285 91.7188 C 0.0 **** 0.0
22814 C30 27.3868 12.1572 90.5141 C 0.0 **** 0.0
22815 C31 28.2011 13.2407 90.2232 C 0.0 **** 0.0
22816 C32 26.392 11.6816 89.5315 C 0.0 **** 0.0
22817 C33 25.5142 10.5322 89.8285 C 0.0 **** 0.0
22818 C34 26.1547 9.47819 90.7665 C 0.0 **** 0.0
22819 C35 26.7257 10.2139 91.9597 C 0.0 **** 0.0
22820 C36 27.9605 13.9852 89.0307 C 0.0 **** 0.0
22821 C37 27.0283 13.564 88.0642 C 0.0 **** 0.0
22822 C38 26.2469 12.4341 88.328 C 0.0 **** 0.0
22823 C39 33.324 15.9511 86.8575 C 0.0 **** 0.0
22824 C40 32.364 14.8064 86.7616 C 0.0 **** 0.0
22825 C41 32.0975 14.2902 88.014 C 0.0 **** 0.0
22826 C42 31.3972 13.0856 88.1083 C 0.0 **** 0.0
22827 C43 30.9395 12.4507 86.9411 C 0.0 **** 0.0
22828 C44 31.2132 12.9686 85.6481 C 0.0 **** 0.0
22829 C45 31.8788 14.2082 85.556 C 0.0 **** 0.0
22830 C46 32.147 14.7152 84.3025 C 0.0 **** 0.0
22831 C47 31.8264 14.0257 83.1544 C 0.0 **** 0.0
22832 C48 31.1631 12.7838 83.2141 C 0.0 **** 0.0
22833 C49 30.8468 12.2663 84.4906 C 0.0 **** 0.0
22834 C50 30.1493 11.0566 84.6147 C 0.0 **** 0.0
22835 C51 29.8832 10.5717 85.8774 C 0.0 **** 0.0
22836 C52 30.2298 11.2812 87.0157 C 0.0 **** 0.0
22837 O53 40.9332 19.2606 92.9648 O 0.0 **** 0.0
22838 C54 40.347 17.5788 95.245 C 0.0 **** 0.0
22839 O55 35.2328 17.6771 88.4711 O 0.0 **** 0.0
22840 C56 32.2117 14.5371 81.8031 C 0.0 **** 0.0
22841 C57 33.7639 14.5929 81.605 C 0.0 **** 0.0
22842 O58 26.8729 14.2442 86.8381 O 0.0 **** 0.0
22843 O59 28.8347 10.9789 93.7221 O 0.0 **** 0.0
22844 O60 29.7285 10.2618 83.5538 O 0.0 **** 0.0
22845 H61 39.3378 18.9062 90.8526 H 0.0 **** 0.0
22846 H62 38.1225 16.1333 94.724 H 0.0 **** 0.0
22847 H63 37.325 17.3402 89.6821 H 0.0 **** 0.0
22848 H64 36.5224 18.7676 90.4806 H 0.0 **** 0.0
22849 H65 36.7184 14.4538 94.2626 H 0.0 **** 0.0
22850 H66 35.4798 15.5318 95.1386 H 0.0 **** 0.0
22851 H67 35.1654 12.6657 94.0256 H 0.0 **** 0.0
22852 H68 35.1416 13.2192 95.7493 H 0.0 **** 0.0
22853 H69 32.9634 12.6998 94.7832 H 0.0 **** 0.0
22854 H70 33.0352 14.4186 95.1695 H 0.0 **** 0.0
22855 H71 29.9255 15.5285 91.41 H 0.0 **** 0.0
22856 H72 30.4215 13.6515 93.9635 H 0.0 **** 0.0
22857 H73 24.6191 10.9048 90.3427 H 0.0 **** 0.0
22858 H74 25.136 10.0602 88.8725 H 0.0 **** 0.0
22859 H75 25.3398 8.86448 91.1297 H 0.0 **** 0.0
22860 H76 26.949 8.96543 90.2251 H 0.0 **** 0.0
22861 H77 25.9275 10.5266 92.6892 H 0.0 **** 0.0
22862 H78 27.3916 9.47733 92.5041 H 0.0 **** 0.0
22863 H79 28.4977 14.8998 88.8008 H 0.0 **** 0.0
22864 H80 25.4468 12.1711 87.6178 H 0.0 **** 0.0
22865 H81 32.9451 16.8979 86.4256 H 0.0 **** 0.0
22866 H82 34.26 15.7131 86.3184 H 0.0 **** 0.0
22867 H83 31.2605 12.6314 89.0991 H 0.0 **** 0.0
22868 H84 32.6898 15.615 84.182 H 0.0 **** 0.0
22869 H85 31.0037 12.2379 82.3139 H 0.0 **** 0.0
22870 H86 29.4062 9.60105 85.9311 H 0.0 **** 0.0
22871 H87 30.0822 10.8622 88.0363 H 0.0 **** 0.0
22872 H88 41.023 19.8386 92.1117 H 0.0 **** 0.0
22873 H89 40.7258 18.5876 95.4018 H 0.0 **** 0.0
22874 H90 41.2042 16.8901 95.1251 H 0.0 **** 0.0
22875 H91 39.8072 17.2481 96.1756 H 0.0 **** 0.0
22876 H92 35.0076 17.8976 87.5001 H 0.0 **** 0.0
22877 H93 31.7689 13.9206 80.9658 H 0.0 **** 0.0
22878 H94 33.9527 14.7409 80.5131 H 0.0 **** 0.0
22879 H95 34.2127 13.6437 81.872 H 0.0 **** 0.0
22880 H96 34.1801 15.4463 82.2283 H 0.0 **** 0.0
22881 H97 27.6752 14.8723 86.6891 H 0.0 **** 0.0
22882 H98 29.4828 11.329 94.4508 H 0.0 **** 0.0
22883 H99 29.8309 10.6225 82.6161 H 0.0 **** 0.0
22884 H100 30.283 15.0554 89.7832 H 0.0 **** 0.0
22885 H101 31.2132 12.0639 93.3577 H 0.0 **** 0.0
22886 H102 31.7247 15.5737 81.6785 H 0.0 **** 0.0
22887 C1 38.2326 9.6272 93.792 C 0.0 **** 0.0
22888 C2 37.4176 10.001 94.9038 C 0.0 **** 0.0
22889 C3 36.0267 9.94282 94.7905 C 0.0 **** 0.0
22890 C4 35.4377 9.63024 93.5658 C 0.0 **** 0.0
22891 C5 36.1941 9.28506 92.4556 C 0.0 **** 0.0
22892 C6 37.5648 9.23058 92.5928 C 0.0 **** 0.0
22893 C7 34.0214 9.43969 93.8488 C 0.0 **** 0.0
22894 C8 33.7633 9.77272 95.2214 C 0.0 **** 0.0
22895 C9 35.0568 10.045 95.9159 C 0.0 **** 0.0
22896 C10 32.4769 9.52598 95.7557 C 0.0 **** 0.0
22897 C11 31.4777 8.90969 94.9425 C 0.0 **** 0.0
22898 C12 31.7493 8.59576 93.6008 C 0.0 **** 0.0
22899 C13 32.9813 8.91374 93.0414 C 0.0 **** 0.0
22900 C14 33.1839 8.60607 91.5694 C 0.0 **** 0.0
22901 C15 31.8683 8.76286 90.7342 C 0.0 **** 0.0
22902 C16 30.8312 7.75228 91.2811 C 0.0 **** 0.0
22903 C17 30.7595 7.78744 92.8216 C 0.0 **** 0.0
22904 C18 29.8392 7.06463 93.5835 C 0.0 **** 0.0
22905 C19 29.5319 7.42853 94.9067 C 0.0 **** 0.0
22906 C20 30.2699 8.44251 95.5137 C 0.0 **** 0.0
22907 C21 29.8866 9.14766 96.701 C 0.0 **** 0.0
22908 C22 30.7954 9.75126 97.533 C 0.0 **** 0.0
22909 C23 32.1238 9.8588 97.0976 C 0.0 **** 0.0
22910 C24 28.5281 6.62145 95.7105 C 0.0 **** 0.0
22911 C25 27.9857 5.34288 95.0735 C 0.0 **** 0.0
22912 C26 28.2659 5.00413 93.7405 C 0.0 **** 0.0
22913 C27 29.13 5.92085 92.8749 C 0.0 **** 0.0
22914 C28 27.6953 3.82713 93.2264 C 0.0 **** 0.0
22915 C29 26.8077 3.08988 93.99 C 0.0 **** 0.0
22916 C30 26.4857 3.50666 95.2978 C 0.0 **** 0.0
22917 C31 27.0748 4.6031 95.8466 C 0.0 **** 0.0
22918 C32 25.5304 2.67944 96.0992 C 0.0 **** 0.0
22919 C33 24.8158 1.51208 95.4911 C 0.0 **** 0.0
22920 C34 24.7993 1.62841 93.978 C 0.0 **** 0.0
22921 C35 26.1344 1.87409 93.3936 C 0.0 **** 0.0
22922 C36 26.8075 4.96457 97.1719 C 0.0 **** 0.0
22923 C37 25.9616 4.19221 97.9684 C 0.0 **** 0.0
22924 C38 25.3667 3.04956 97.4298 C 0.0 **** 0.0
22925 C39 30.0965 10.6322 98.5925 C 0.0 **** 0.0
22926 C40 28.6831 10.4999 98.1138 C 0.0 **** 0.0
22927 C41 28.6256 9.65389 97.053 C 0.0 **** 0.0
22928 C42 27.465 9.60444 96.2239 C 0.0 **** 0.0
22929 C43 26.3331 10.3549 96.5773 C 0.0 **** 0.0
22930 C44 26.3481 11.1999 97.7193 C 0.0 **** 0.0
22931 C45 27.5642 11.3253 98.4734 C 0.0 **** 0.0
22932 C46 27.5628 12.2131 99.5511 C 0.0 **** 0.0
22933 C47 26.3653 12.8848 99.9016 C 0.0 **** 0.0
22934 C48 25.1697 12.6873 99.2265 C 0.0 **** 0.0
22935 C49 25.1576 11.9048 98.0587 C 0.0 **** 0.0
22936 C50 23.999 11.8126 97.2143 C 0.0 **** 0.0
22937 C51 24.0233 10.8994 96.1513 C 0.0 **** 0.0
22938 C52 25.1893 10.2394 95.8059 C 0.0 **** 0.0
22939 O53 39.625 9.48584 93.9153 O 0.0 **** 0.0
22940 C54 38.3751 8.56599 91.531 C 0.0 **** 0.0
22941 O55 33.1058 10.452 97.931 O 0.0 **** 0.0
22942 C56 26.3908 13.7259 101.102 C 0.0 **** 0.0
22943 C57 25.569 13.0602 102.196 C 0.0 **** 0.0
22944 O58 25.8504 4.51727 99.3159 O 0.0 **** 0.0
22945 O59 27.9755 3.35762 91.8832 O 0.0 **** 0.0
22946 O60 22.7827 12.5239 97.4618 O 0.0 **** 0.0
22947 H61 37.895 10.2102 95.8369 H 0.0 **** 0.0
22948 H62 35.7324 8.86956 91.5425 H 0.0 **** 0.0
22949 H63 35.1107 11.0489 96.3836 H 0.0 **** 0.0
22950 H64 35.2282 9.27537 96.6681 H 0.0 **** 0.0
22951 H65 33.8638 9.34817 91.0727 H 0.0 **** 0.0
22952 H66 33.5558 7.61404 91.4742 H 0.0 **** 0.0
22953 H67 31.4924 9.83975 90.7201 H 0.0 **** 0.0
22954 H68 32.0259 8.3962 89.6795 H 0.0 **** 0.0
22955 H69 29.8259 8.08176 90.9049 H 0.0 **** 0.0
22956 H70 31.021 6.72951 90.9625 H 0.0 **** 0.0
22957 H71 29.0748 6.33282 96.5832 H 0.0 **** 0.0
22958 H72 29.9327 5.26036 92.543 H 0.0 **** 0.0
22959 H73 25.3142 0.529117 95.7562 H 0.0 **** 0.0
22960 H74 23.7555 1.45037 95.8496 H 0.0 **** 0.0
22961 H75 24.4661 0.637028 93.5265 H 0.0 **** 0.0
22962 H76 24.0498 2.40174 93.6604 H 0.0 **** 0.0
22963 H77 26.8488 1.01606 93.4919 H 0.0 **** 0.0
22964 H78 25.9524 2.02371 92.2863 H 0.0 **** 0.0
22965 H79 27.1893 5.84245 97.6478 H 0.0 **** 0.0
22966 H80 24.7471 2.40692 98.0493 H 0.0 **** 0.0
22967 H81 30.1469 10.1059 99.5542 H 0.0 **** 0.0
22968 H82 30.4419 11.6533 98.6331 H 0.0 **** 0.0
22969 H83 27.4901 9.18228 95.2326 H 0.0 **** 0.0
22970 H84 28.4597 12.4091 100.124 H 0.0 **** 0.0
22971 H85 24.3291 13.2081 99.5107 H 0.0 **** 0.0
22972 H86 23.1643 10.7331 95.5242 H 0.0 **** 0.0
22973 H87 25.2053 9.65683 94.9072 H 0.0 **** 0.0
22974 H88 39.9909 9.81836 94.7954 H 0.0 **** 0.0
22975 H89 39.0852 9.32964 91.0985 H 0.0 **** 0.0
22976 H90 37.7576 8.27284 90.6114 H 0.0 **** 0.0
22977 H91 38.9449 7.73418 91.9971 H 0.0 **** 0.0
22978 H92 32.7562 10.7292 98.8545 H 0.0 **** 0.0
22979 H93 27.4127 13.9499 101.462 H 0.0 **** 0.0
22980 H94 25.5607 13.6377 103.113 H 0.0 **** 0.0
22981 H95 26.0279 12.0778 102.412 H 0.0 **** 0.0
22982 H96 24.5481 12.8895 101.865 H 0.0 **** 0.0
22983 H97 26.3761 5.33123 99.6523 H 0.0 **** 0.0
22984 H98 28.6131 3.89286 91.3442 H 0.0 **** 0.0
22985 H99 22.6969 13.1834 98.2354 H 0.0 **** 0.0
22986 H100 27.6669 7.19226 96.0199 H 0.0 **** 0.0
22987 H101 28.5775 6.36075 92.0067 H 0.0 **** 0.0
22988 H102 25.948 14.661 100.803 H 0.0 **** 0.0
22989 C1 2.38171 64.8178 96.6104 C 0.0 **** 0.0
22990 C2 3.28608 65.426 97.4691 C 0.0 **** 0.0
22991 C3 3.97214 66.5999 96.9958 C 0.0 **** 0.0
22992 C4 3.77287 67.114 95.7342 C 0.0 **** 0.0
22993 C5 2.7586 66.534 94.9189 C 0.0 **** 0.0
22994 C6 2.17536 65.3224 95.3195 C 0.0 **** 0.0
22995 C7 4.57638 68.3394 95.635 C 0.0 **** 0.0
22996 C8 5.07529 68.6489 96.8632 C 0.0 **** 0.0
22997 C9 4.81868 67.5009 97.8179 C 0.0 **** 0.0
22998 C10 5.99537 69.6869 97.0753 C 0.0 **** 0.0
22999 C11 6.43573 70.4482 95.9312 C 0.0 **** 0.0
23000 C12 5.92934 70.1002 94.6218 C 0.0 **** 0.0
23001 C13 5.04111 69.0127 94.4961 C 0.0 **** 0.0
23002 C14 4.58657 68.5543 93.0996 C 0.0 **** 0.0
23003 C15 5.62348 68.9356 92.0545 C 0.0 **** 0.0
23004 C16 5.88977 70.4228 92.0724 C 0.0 **** 0.0
23005 C17 6.39875 70.8432 93.4433 C 0.0 **** 0.0
23006 C18 7.09685 72.0667 93.6409 C 0.0 **** 0.0
23007 C19 7.52815 72.455 94.9561 C 0.0 **** 0.0
23008 C20 7.27898 71.5799 96.0895 C 0.0 **** 0.0
23009 C21 7.78386 71.8075 97.4114 C 0.0 **** 0.0
23010 C22 7.2161 71.1728 98.5034 C 0.0 **** 0.0
23011 C23 6.38061 70.0699 98.3862 C 0.0 **** 0.0
23012 C24 7.93996 73.9537 95.1623 C 0.0 **** 0.0
23013 C25 6.94619 74.8329 94.4088 C 0.0 **** 0.0
23014 C26 6.52767 74.3854 93.1327 C 0.0 **** 0.0
23015 C27 7.20836 73.1345 92.6005 C 0.0 **** 0.0
23016 C28 5.38457 74.9651 92.5099 C 0.0 **** 0.0
23017 C29 4.72068 75.9484 93.1842 C 0.0 **** 0.0
23018 C30 5.15411 76.455 94.428 C 0.0 **** 0.0
23019 C31 6.29868 75.9316 95.0221 C 0.0 **** 0.0
23020 C32 4.39438 77.5292 95.1175 C 0.0 **** 0.0
23021 C33 3.26179 78.2194 94.4123 C 0.0 **** 0.0
23022 C34 3.34572 78.0047 92.8971 C 0.0 **** 0.0
23023 C35 3.4956 76.5134 92.518 C 0.0 **** 0.0
23024 C36 6.8605 76.5626 96.153 C 0.0 **** 0.0
23025 C37 6.22183 77.6466 96.7445 C 0.0 **** 0.0
23026 C38 4.95824 78.0901 96.2716 C 0.0 **** 0.0
23027 C39 7.75828 71.7042 99.8234 C 0.0 **** 0.0
23028 C40 8.82559 72.594 99.2625 C 0.0 **** 0.0
23029 C41 8.88366 72.5765 97.8819 C 0.0 **** 0.0
23030 C42 9.96687 73.1169 97.2109 C 0.0 **** 0.0
23031 C43 10.9007 73.8451 97.9102 C 0.0 **** 0.0
23032 C44 10.7738 74.0416 99.3138 C 0.0 **** 0.0
23033 C45 9.73213 73.3665 100.023 C 0.0 **** 0.0
23034 C46 9.66353 73.4585 101.418 C 0.0 **** 0.0
23035 C47 10.6196 74.1919 102.112 C 0.0 **** 0.0
23036 C48 11.6388 74.9102 101.441 C 0.0 **** 0.0
23037 C49 11.8048 74.7169 100.046 C 0.0 **** 0.0
23038 C50 12.9171 75.2579 99.3096 C 0.0 **** 0.0
23039 C51 12.9182 75.1772 97.8949 C 0.0 **** 0.0
23040 C52 11.9137 74.5178 97.2243 C 0.0 **** 0.0
23041 O53 1.64631 63.7123 96.9562 O 0.0 **** 0.0
23042 C54 1.37615 64.5872 94.2776 C 0.0 **** 0.0
23043 O55 5.89667 69.4581 99.5616 O 0.0 **** 0.0
23044 C56 10.5747 74.2426 103.6 C 0.0 **** 0.0
23045 C57 11.6776 73.4511 104.273 C 0.0 **** 0.0
23046 O58 6.88598 78.3503 97.746 O 0.0 **** 0.0
23047 O59 4.81865 74.4229 91.3223 O 0.0 **** 0.0
23048 O60 14.0289 75.8158 99.9345 O 0.0 **** 0.0
23049 H61 3.44375 65.1296 98.5305 H 0.0 **** 0.0
23050 H62 2.47496 67.0314 94.0174 H 0.0 **** 0.0
23051 H63 5.80324 67.0024 98.0992 H 0.0 **** 0.0
23052 H64 4.15732 67.8565 98.6697 H 0.0 **** 0.0
23053 H65 4.54689 67.4637 93.1184 H 0.0 **** 0.0
23054 H66 3.53921 68.9054 92.9443 H 0.0 **** 0.0
23055 H67 6.58001 68.3424 92.1808 H 0.0 **** 0.0
23056 H68 5.17999 68.711 91.0403 H 0.0 **** 0.0
23057 H69 6.63024 70.6 91.2578 H 0.0 **** 0.0
23058 H70 4.95253 70.9449 91.77 H 0.0 **** 0.0
23059 H71 7.90973 74.1541 96.2452 H 0.0 **** 0.0
23060 H72 6.76964 72.8353 91.6263 H 0.0 **** 0.0
23061 H73 2.29774 77.7789 94.7599 H 0.0 **** 0.0
23062 H74 3.28941 79.3106 94.6121 H 0.0 **** 0.0
23063 H75 2.48106 78.4418 92.3513 H 0.0 **** 0.0
23064 H76 4.23318 78.5761 92.4945 H 0.0 **** 0.0
23065 H77 2.56977 76.0185 92.7862 H 0.0 **** 0.0
23066 H78 3.61556 76.5339 91.4003 H 0.0 **** 0.0
23067 H79 7.82105 76.293 96.5437 H 0.0 **** 0.0
23068 H80 4.51328 78.964 96.6697 H 0.0 **** 0.0
23069 H81 6.95865 72.2294 100.425 H 0.0 **** 0.0
23070 H82 8.29285 70.8596 100.385 H 0.0 **** 0.0
23071 H83 10.1104 72.9655 96.1586 H 0.0 **** 0.0
23072 H84 8.7854 72.984 101.946 H 0.0 **** 0.0
23073 H85 12.3041 75.5427 101.998 H 0.0 **** 0.0
23074 H86 13.6711 75.6239 97.2627 H 0.0 **** 0.0
23075 H87 11.8239 74.4956 96.1696 H 0.0 **** 0.0
23076 H88 1.76647 63.383 97.9118 H 0.0 **** 0.0
23077 H89 1.80302 63.6006 94.0274 H 0.0 **** 0.0
23078 H90 1.33431 65.1555 93.352 H 0.0 **** 0.0
23079 H91 0.366207 64.4466 94.7407 H 0.0 **** 0.0
23080 H92 6.05068 69.9007 100.476 H 0.0 **** 0.0
23081 H93 10.7368 75.3136 103.88 H 0.0 **** 0.0
23082 H94 11.5702 73.5368 105.367 H 0.0 **** 0.0
23083 H95 12.6394 73.8514 103.994 H 0.0 **** 0.0
23084 H96 11.6792 72.3637 104.037 H 0.0 **** 0.0
23085 H97 7.69334 77.9035 98.0964 H 0.0 **** 0.0
23086 H98 5.49891 74.3359 90.5454 H 0.0 **** 0.0
23087 H99 14.1361 75.582 100.906 H 0.0 **** 0.0
23088 H100 8.9299 74.1283 94.7366 H 0.0 **** 0.0
23089 H101 8.28527 73.353 92.3756 H 0.0 **** 0.0
23090 H102 9.63001 73.8909 103.985 H 0.0 **** 0.0
23091 C1 87.9805 95.0451 11.8196 C 0.0 **** 0.0
23092 C2 86.6819 94.7469 11.3994 C 0.0 **** 0.0
23093 C3 86.4839 93.9571 10.2719 C 0.0 **** 0.0
23094 C4 87.5126 93.4708 9.51107 C 0.0 **** 0.0
23095 C5 88.8167 93.7071 9.95565 C 0.0 **** 0.0
23096 C6 89.04 94.5003 11.1312 C 0.0 **** 0.0
23097 C7 86.9856 92.4438 8.642 C 0.0 **** 0.0
23098 C8 85.6472 92.2657 8.89935 C 0.0 **** 0.0
23099 C9 85.2234 93.2511 9.95035 C 0.0 **** 0.0
23100 C10 84.8078 91.3419 8.19844 C 0.0 **** 0.0
23101 C11 85.3684 90.6478 7.10784 C 0.0 **** 0.0
23102 C12 86.748 90.8603 6.75974 C 0.0 **** 0.0
23103 C13 87.5929 91.7159 7.58225 C 0.0 **** 0.0
23104 C14 89.0332 91.9885 7.27266 C 0.0 **** 0.0
23105 C15 89.3666 91.7217 5.75311 C 0.0 **** 0.0
23106 C16 88.8066 90.3835 5.25289 C 0.0 **** 0.0
23107 C17 87.3375 90.1811 5.57499 C 0.0 **** 0.0
23108 C18 86.5167 89.1873 4.90268 C 0.0 **** 0.0
23109 C19 85.1743 88.9431 5.33424 C 0.0 **** 0.0
23110 C20 84.561 89.7829 6.32754 C 0.0 **** 0.0
23111 C21 83.2106 89.7217 6.63225 C 0.0 **** 0.0
23112 C22 82.7191 90.272 7.80152 C 0.0 **** 0.0
23113 C23 83.4741 91.075 8.61656 C 0.0 **** 0.0
23114 C24 84.735 87.5101 5.06727 C 0.0 **** 0.0
23115 C25 84.8825 87.1049 3.60633 C 0.0 **** 0.0
23116 C26 86.0936 87.5539 2.98995 C 0.0 **** 0.0
23117 C27 87.0772 88.3539 3.81736 C 0.0 **** 0.0
23118 C28 86.4144 87.1633 1.6532 C 0.0 **** 0.0
23119 C29 85.4087 86.494 0.87387 C 0.0 **** 0.0
23120 C30 84.2585 85.9762 1.48213 C 0.0 **** 0.0
23121 C31 84.0284 86.2052 2.89543 C 0.0 **** 0.0
23122 C32 83.2904 85.15 0.716908 C 0.0 **** 0.0
23123 C33 83.5764 84.8258 -0.694237 C 0.0 **** 0.0
23124 C34 84.3965 85.9274 -1.35276 C 0.0 **** 0.0
23125 C35 85.6962 86.2526 -0.6061 C 0.0 **** 0.0
23126 C36 82.9519 85.5285 3.49218 C 0.0 **** 0.0
23127 C37 82.077 84.6687 2.78921 C 0.0 **** 0.0
23128 C38 82.2356 84.4903 1.38656 C 0.0 **** 0.0
23129 C39 81.2329 90.0423 7.96472 C 0.0 **** 0.0
23130 C40 80.9148 89.4302 6.65728 C 0.0 **** 0.0
23131 C41 82.0886 89.3133 5.9218 C 0.0 **** 0.0
23132 C42 82.0168 88.8988 4.58815 C 0.0 **** 0.0
23133 C43 80.7875 88.3417 4.14198 C 0.0 **** 0.0
23134 C44 79.6242 88.4147 4.91371 C 0.0 **** 0.0
23135 C45 79.6943 88.9311 6.23177 C 0.0 **** 0.0
23136 C46 78.6291 88.7934 7.10305 C 0.0 **** 0.0
23137 C47 77.4518 88.1109 6.69627 C 0.0 **** 0.0
23138 C48 77.3689 87.5952 5.387 C 0.0 **** 0.0
23139 C49 78.4103 87.803 4.4318 C 0.0 **** 0.0
23140 C50 78.3639 87.352 3.06743 C 0.0 **** 0.0
23141 C51 79.5214 87.3759 2.26793 C 0.0 **** 0.0
23142 C52 80.7308 87.7869 2.84202 C 0.0 **** 0.0
23143 O53 88.2516 95.8343 12.9315 O 0.0 **** 0.0
23144 C54 90.434 94.6045 11.7042 C 0.0 **** 0.0
23145 O55 82.9442 91.6645 9.75727 O 0.0 **** 0.0
23146 C56 76.3307 87.9507 7.64525 C 0.0 **** 0.0
23147 C57 76.6096 87.3641 9.0116 C 0.0 **** 0.0
23148 O58 81.0796 83.9306 3.41292 O 0.0 **** 0.0
23149 O59 87.6946 87.3917 1.09875 O 0.0 **** 0.0
23150 O60 77.2004 86.7759 2.52669 O 0.0 **** 0.0
23151 H61 85.848 95.0404 11.9842 H 0.0 **** 0.0
23152 H62 89.6368 93.0554 9.65866 H 0.0 **** 0.0
23153 H63 84.4324 93.9296 9.57864 H 0.0 **** 0.0
23154 H64 84.8497 92.737 10.845 H 0.0 **** 0.0
23155 H65 89.3041 93.0387 7.52659 H 0.0 **** 0.0
23156 H66 89.6382 91.3292 7.91982 H 0.0 **** 0.0
23157 H67 88.8628 92.5331 5.17362 H 0.0 **** 0.0
23158 H68 90.4419 91.7709 5.6313 H 0.0 **** 0.0
23159 H69 88.9918 90.2923 4.16522 H 0.0 **** 0.0
23160 H70 89.3569 89.5713 5.76221 H 0.0 **** 0.0
23161 H71 85.4582 86.886 5.60309 H 0.0 **** 0.0
23162 H72 87.8562 87.7155 4.29791 H 0.0 **** 0.0
23163 H73 84.1341 83.833 -0.705609 H 0.0 **** 0.0
23164 H74 82.6184 84.6937 -1.25842 H 0.0 **** 0.0
23165 H75 84.6727 85.5746 -2.40817 H 0.0 **** 0.0
23166 H76 83.7576 86.8473 -1.42481 H 0.0 **** 0.0
23167 H77 86.4388 85.4506 -0.755383 H 0.0 **** 0.0
23168 H78 86.1855 87.1623 -1.09422 H 0.0 **** 0.0
23169 H79 82.6865 85.8041 4.50312 H 0.0 **** 0.0
23170 H80 81.619 83.7761 0.858783 H 0.0 **** 0.0
23171 H81 81.0972 89.3401 8.83715 H 0.0 **** 0.0
23172 H82 80.6791 90.9786 8.08922 H 0.0 **** 0.0
23173 H83 82.8482 88.9432 3.93006 H 0.0 **** 0.0
23174 H84 78.6349 89.2271 8.07163 H 0.0 **** 0.0
23175 H85 76.4326 87.1215 5.10098 H 0.0 **** 0.0
23176 H86 79.5027 87.0209 1.22441 H 0.0 **** 0.0
23177 H87 81.6088 87.6689 2.28612 H 0.0 **** 0.0
23178 H88 87.4389 96.0851 13.4697 H 0.0 **** 0.0
23179 H89 91.1093 93.8023 11.4299 H 0.0 **** 0.0
23180 H90 90.3874 94.5528 12.7996 H 0.0 **** 0.0
23181 H91 90.9051 95.521 11.4268 H 0.0 **** 0.0
23182 H92 82.0349 91.3492 10.0201 H 0.0 **** 0.0
23183 H93 75.8834 88.9269 7.75987 H 0.0 **** 0.0
23184 H94 75.6449 87.2718 9.54231 H 0.0 **** 0.0
23185 H95 77.2766 87.9558 9.64111 H 0.0 **** 0.0
23186 H96 77.0136 86.3951 8.90013 H 0.0 **** 0.0
23187 H97 81.005 83.9752 4.40414 H 0.0 **** 0.0
23188 H98 88.4184 87.4902 1.75307 H 0.0 **** 0.0
23189 H99 76.3241 87.0252 2.99029 H 0.0 **** 0.0
23190 H100 83.7729 87.3198 5.61594 H 0.0 **** 0.0
23191 H101 87.5919 89.036 3.1311 H 0.0 **** 0.0
23192 H102 75.5318 87.2958 7.192 H 0.0 **** 0.0
23193 C1 81.3038 108.273 76.8269 C 0.0 **** 0.0
23194 C2 81.3466 107.132 76.0133 C 0.0 **** 0.0
23195 C3 80.2178 106.379 75.7832 C 0.0 **** 0.0
23196 C4 79.0642 106.636 76.4188 C 0.0 **** 0.0
23197 C5 78.9632 107.777 77.2974 C 0.0 **** 0.0
23198 C6 80.0852 108.621 77.4358 C 0.0 **** 0.0
23199 C7 78.0769 105.587 76.1463 C 0.0 **** 0.0
23200 C8 78.6785 104.63 75.3898 C 0.0 **** 0.0
23201 C9 80.112 105.048 75.054 C 0.0 **** 0.0
23202 C10 78.0765 103.377 75.1139 C 0.0 **** 0.0
23203 C11 76.7866 103.15 75.6902 C 0.0 **** 0.0
23204 C12 76.1354 104.2 76.3761 C 0.0 **** 0.0
23205 C13 76.7844 105.388 76.7327 C 0.0 **** 0.0
23206 C14 76.1901 106.31 77.7476 C 0.0 **** 0.0
23207 C15 75.0013 105.753 78.529 C 0.0 **** 0.0
23208 C16 74.0163 105.051 77.6138 C 0.0 **** 0.0
23209 C17 74.7419 103.994 76.7431 C 0.0 **** 0.0
23210 C18 74.0405 102.882 76.2251 C 0.0 **** 0.0
23211 C19 74.7061 101.831 75.605 C 0.0 **** 0.0
23212 C20 76.1021 101.908 75.4409 C 0.0 **** 0.0
23213 C21 76.8522 100.896 74.807 C 0.0 **** 0.0
23214 C22 78.0521 101.146 74.1759 C 0.0 **** 0.0
23215 C23 78.6761 102.393 74.3101 C 0.0 **** 0.0
23216 C24 73.9027 100.735 74.8846 C 0.0 **** 0.0
23217 C25 72.6444 101.35 74.2196 C 0.0 **** 0.0
23218 C26 72.0033 102.432 74.8768 C 0.0 **** 0.0
23219 C27 72.5426 102.801 76.2308 C 0.0 **** 0.0
23220 C28 70.9047 103.105 74.225 C 0.0 **** 0.0
23221 C29 70.5553 102.717 72.9325 C 0.0 **** 0.0
23222 C30 71.1401 101.588 72.3403 C 0.0 **** 0.0
23223 C31 72.0669 100.824 73.0846 C 0.0 **** 0.0
23224 C32 70.7431 101.114 71.0054 C 0.0 **** 0.0
23225 C33 69.7823 101.9 70.1901 C 0.0 **** 0.0
23226 C34 68.8933 102.91 71.0029 C 0.0 **** 0.0
23227 C35 69.6956 103.602 72.0631 C 0.0 **** 0.0
23228 C36 72.4856 99.5643 72.5825 C 0.0 **** 0.0
23229 C37 72.1931 99.1886 71.2701 C 0.0 **** 0.0
23230 C38 71.3289 99.9606 70.498 C 0.0 **** 0.0
23231 C39 78.7285 99.9239 73.7398 C 0.0 **** 0.0
23232 C40 77.9171 98.9637 74.4334 C 0.0 **** 0.0
23233 C41 76.8458 99.5311 75.0762 C 0.0 **** 0.0
23234 C42 76.1722 98.8729 76.0948 C 0.0 **** 0.0
23235 C43 76.5244 97.5512 76.3732 C 0.0 **** 0.0
23236 C44 77.5742 96.9375 75.673 C 0.0 **** 0.0
23237 C45 78.221 97.6203 74.6325 C 0.0 **** 0.0
23238 C46 79.3436 97.0162 73.9694 C 0.0 **** 0.0
23239 C47 79.6853 95.683 74.2463 C 0.0 **** 0.0
23240 C48 79.0057 95.0236 75.257 C 0.0 **** 0.0
23241 C49 77.9923 95.6482 76.0005 C 0.0 **** 0.0
23242 C50 77.4333 95.0083 77.1126 C 0.0 **** 0.0
23243 C51 76.4341 95.6611 77.8623 C 0.0 **** 0.0
23244 C52 75.9429 96.9159 77.4846 C 0.0 **** 0.0
23245 O53 82.4807 109.006 77.0475 O 0.0 **** 0.0
23246 C54 80.0067 109.801 78.2838 C 0.0 **** 0.0
23247 O55 79.8994 102.635 73.6697 O 0.0 **** 0.0
23248 C56 80.8203 94.9733 73.484 C 0.0 **** 0.0
23249 C57 80.428 94.7438 72.0248 C 0.0 **** 0.0
23250 O58 72.6402 97.9299 70.7828 O 0.0 **** 0.0
23251 O59 70.1824 104.103 74.8659 O 0.0 **** 0.0
23252 O60 77.9737 93.7524 77.4396 O 0.0 **** 0.0
23253 H61 82.2625 106.677 75.6401 H 0.0 **** 0.0
23254 H62 78.063 108.086 77.7781 H 0.0 **** 0.0
23255 H63 80.8 104.328 75.5438 H 0.0 **** 0.0
23256 H64 80.3374 105.15 73.954 H 0.0 **** 0.0
23257 H65 76.9412 106.481 78.4714 H 0.0 **** 0.0
23258 H66 75.9471 107.273 77.2051 H 0.0 **** 0.0
23259 H67 75.3174 104.918 79.2093 H 0.0 **** 0.0
23260 H68 74.5677 106.578 79.1137 H 0.0 **** 0.0
23261 H69 73.2348 104.518 78.2308 H 0.0 **** 0.0
23262 H70 73.5814 105.829 76.987 H 0.0 **** 0.0
23263 H71 74.5044 100.36 74.0943 H 0.0 **** 0.0
23264 H72 72.106 103.744 76.5452 H 0.0 **** 0.0
23265 H73 70.3803 102.371 69.3354 H 0.0 **** 0.0
23266 H74 69.1248 101.147 69.8195 H 0.0 **** 0.0
23267 H75 68.4346 103.678 70.3778 H 0.0 **** 0.0
23268 H76 68.0823 102.366 71.5618 H 0.0 **** 0.0
23269 H77 70.3719 104.368 71.6123 H 0.0 **** 0.0
23270 H78 68.9976 104.258 72.6423 H 0.0 **** 0.0
23271 H79 73.1374 98.8544 73.1491 H 0.0 **** 0.0
23272 H80 71.1563 99.6648 69.4388 H 0.0 **** 0.0
23273 H81 78.5702 99.7971 72.6646 H 0.0 **** 0.0
23274 H82 79.7941 99.7823 74.1145 H 0.0 **** 0.0
23275 H83 75.3728 99.3392 76.5966 H 0.0 **** 0.0
23276 H84 79.9085 97.5726 73.1806 H 0.0 **** 0.0
23277 H85 79.3461 94.0295 75.4897 H 0.0 **** 0.0
23278 H86 76.0196 95.1618 78.6827 H 0.0 **** 0.0
23279 H87 75.1519 97.3764 78.1121 H 0.0 **** 0.0
23280 H88 83.3004 108.509 76.7454 H 0.0 **** 0.0
23281 H89 80.3622 109.485 79.2584 H 0.0 **** 0.0
23282 H90 78.9659 110.176 78.4446 H 0.0 **** 0.0
23283 H91 80.5323 110.681 77.8901 H 0.0 **** 0.0
23284 H92 80.2275 101.857 73.0927 H 0.0 **** 0.0
23285 H93 81.7195 95.6376 73.5458 H 0.0 **** 0.0
23286 H94 81.0596 93.9498 71.6124 H 0.0 **** 0.0
23287 H95 80.6378 95.6449 71.4598 H 0.0 **** 0.0
23288 H96 79.404 94.4021 71.941 H 0.0 **** 0.0
23289 H97 73.3191 97.4647 71.3754 H 0.0 **** 0.0
23290 H98 70.1514 103.894 75.86 H 0.0 **** 0.0
23291 H99 77.5994 93.399 78.3007 H 0.0 **** 0.0
23292 H100 73.5027 99.9718 75.5653 H 0.0 **** 0.0
23293 H101 72.2119 101.927 76.9057 H 0.0 **** 0.0
23294 H102 81.071 94.0079 73.9425 H 0.0 **** 0.0
23295 C1 55.2186 91.9247 99.1891 C 0.0 **** 0.0
23296 C2 55.6384 90.5976 98.9578 C 0.0 **** 0.0
23297 C3 54.9022 89.7501 98.127 C 0.0 **** 0.0
23298 C4 53.7406 90.2008 97.4779 C 0.0 **** 0.0
23299 C5 53.3187 91.5219 97.6579 C 0.0 **** 0.0
23300 C6 54.0006 92.3474 98.6016 C 0.0 **** 0.0
23301 C7 53.299 89.1945 96.4783 C 0.0 **** 0.0
23302 C8 54.2415 88.1892 96.5149 C 0.0 **** 0.0
23303 C9 55.3122 88.4826 97.5249 C 0.0 **** 0.0
23304 C10 54.1754 87.1563 95.5943 C 0.0 **** 0.0
23305 C11 53.1159 87.1612 94.6324 C 0.0 **** 0.0
23306 C12 52.1152 88.1417 94.677 C 0.0 **** 0.0
23307 C13 52.1567 89.1518 95.6486 C 0.0 **** 0.0
23308 C14 51.0245 90.1512 95.752 C 0.0 **** 0.0
23309 C15 49.6884 89.5624 95.2366 C 0.0 **** 0.0
23310 C16 49.8125 88.9801 93.8089 C 0.0 **** 0.0
23311 C17 50.9765 88.0538 93.681 C 0.0 **** 0.0
23312 C18 51.178 87.2389 92.5251 C 0.0 **** 0.0
23313 C19 52.2949 86.4149 92.4852 C 0.0 **** 0.0
23314 C20 53.0469 86.1179 93.6695 C 0.0 **** 0.0
23315 C21 53.9433 85.0302 93.814 C 0.0 **** 0.0
23316 C22 55.0866 85.1439 94.5922 C 0.0 **** 0.0
23317 C23 55.1918 86.1608 95.5165 C 0.0 **** 0.0
23318 C24 52.7987 85.9785 91.1193 C 0.0 **** 0.0
23319 C25 51.6766 85.4061 90.2361 C 0.0 **** 0.0
23320 C26 50.4129 86.0673 90.3369 C 0.0 **** 0.0
23321 C27 50.2219 87.2256 91.3415 C 0.0 **** 0.0
23322 C28 49.3701 85.6517 89.4887 C 0.0 **** 0.0
23323 C29 49.5051 84.5025 88.6931 C 0.0 **** 0.0
23324 C30 50.7099 83.8059 88.668 C 0.0 **** 0.0
23325 C31 51.8353 84.3227 89.364 C 0.0 **** 0.0
23326 C32 50.8112 82.5652 87.8916 C 0.0 **** 0.0
23327 C33 49.5799 81.9208 87.2938 C 0.0 **** 0.0
23328 C34 48.3236 82.4391 87.8985 C 0.0 **** 0.0
23329 C35 48.3681 83.9868 87.8359 C 0.0 **** 0.0
23330 C36 53.063 83.633 89.187 C 0.0 **** 0.0
23331 C37 53.1583 82.4872 88.3704 C 0.0 **** 0.0
23332 C38 52.0608 81.9586 87.7745 C 0.0 **** 0.0
23333 C39 55.9156 83.8949 94.5019 C 0.0 **** 0.0
23334 C40 54.9789 83.0193 93.7431 C 0.0 **** 0.0
23335 C41 53.8397 83.7361 93.3518 C 0.0 **** 0.0
23336 C42 52.6612 83.1443 92.931 C 0.0 **** 0.0
23337 C43 52.6837 81.7296 92.8353 C 0.0 **** 0.0
23338 C44 53.8283 80.9474 93.183 C 0.0 **** 0.0
23339 C45 55.0237 81.5989 93.6349 C 0.0 **** 0.0
23340 C46 56.1608 80.8295 93.9607 C 0.0 **** 0.0
23341 C47 56.1113 79.4081 93.8967 C 0.0 **** 0.0
23342 C48 54.8896 78.782 93.5309 C 0.0 **** 0.0
23343 C49 53.732 79.5422 93.2494 C 0.0 **** 0.0
23344 C50 52.4752 78.9341 92.9105 C 0.0 **** 0.0
23345 C51 51.4176 79.6887 92.3901 C 0.0 **** 0.0
23346 C52 51.537 81.0842 92.4451 C 0.0 **** 0.0
23347 O53 55.9394 92.7894 100.035 O 0.0 **** 0.0
23348 C54 53.6317 93.8015 98.6676 C 0.0 **** 0.0
23349 O55 56.1918 86.1743 96.4229 O 0.0 **** 0.0
23350 C56 57.3461 78.5397 94.217 C 0.0 **** 0.0
23351 C57 57.7268 77.5512 93.0969 C 0.0 **** 0.0
23352 O58 54.3037 81.6974 88.3912 O 0.0 **** 0.0
23353 O59 48.172 86.3485 89.4779 O 0.0 **** 0.0
23354 O60 52.1775 77.6511 93.2528 O 0.0 **** 0.0
23355 H61 56.5599 90.2281 99.4883 H 0.0 **** 0.0
23356 H62 52.4281 91.8664 97.1795 H 0.0 **** 0.0
23357 H63 55.3065 87.7252 98.3508 H 0.0 **** 0.0
23358 H64 56.3348 88.5736 97.0253 H 0.0 **** 0.0
23359 H65 50.8166 90.3206 96.8478 H 0.0 **** 0.0
23360 H66 51.2529 91.0821 95.2301 H 0.0 **** 0.0
23361 H67 49.3225 88.714 95.8848 H 0.0 **** 0.0
23362 H68 48.8179 90.2825 95.2768 H 0.0 **** 0.0
23363 H69 48.8581 88.4248 93.545 H 0.0 **** 0.0
23364 H70 49.9201 89.8228 93.1574 H 0.0 **** 0.0
23365 H71 53.1823 86.894 90.6385 H 0.0 **** 0.0
23366 H72 50.2062 88.1945 90.821 H 0.0 **** 0.0
23367 H73 49.6443 81.8722 86.2106 H 0.0 **** 0.0
23368 H74 49.621 80.8333 87.4992 H 0.0 **** 0.0
23369 H75 47.4121 82.1214 87.3582 H 0.0 **** 0.0
23370 H76 48.2112 82.0695 88.9832 H 0.0 **** 0.0
23371 H77 48.4837 84.352 86.7897 H 0.0 **** 0.0
23372 H78 47.4024 84.4176 88.2093 H 0.0 **** 0.0
23373 H79 53.9627 83.9802 89.6241 H 0.0 **** 0.0
23374 H80 52.1223 81.0241 87.2384 H 0.0 **** 0.0
23375 H81 56.9059 84.0785 94.0209 H 0.0 **** 0.0
23376 H82 56.0787 83.5068 95.5308 H 0.0 **** 0.0
23377 H83 51.7682 83.6867 92.7557 H 0.0 **** 0.0
23378 H84 57.0519 81.3206 94.373 H 0.0 **** 0.0
23379 H85 54.863 77.7466 93.5331 H 0.0 **** 0.0
23380 H86 50.492 79.2073 92.024 H 0.0 **** 0.0
23381 H87 50.7018 81.673 92.1744 H 0.0 **** 0.0
23382 H88 56.7247 92.3997 100.514 H 0.0 **** 0.0
23383 H89 54.1546 94.3649 97.8642 H 0.0 **** 0.0
23384 H90 53.9333 94.1859 99.62 H 0.0 **** 0.0
23385 H91 52.5286 94.0027 98.6549 H 0.0 **** 0.0
23386 H92 56.9183 85.4978 96.3048 H 0.0 **** 0.0
23387 H93 58.2429 79.1776 94.4637 H 0.0 **** 0.0
23388 H94 58.4789 76.8198 93.483 H 0.0 **** 0.0
23389 H95 58.1678 78.199 92.2038 H 0.0 **** 0.0
23390 H96 56.8172 77.0238 92.7596 H 0.0 **** 0.0
23391 H97 55.0223 82.0772 88.9946 H 0.0 **** 0.0
23392 H98 48.204 87.2322 89.9543 H 0.0 **** 0.0
23393 H99 52.7541 77.2575 93.9769 H 0.0 **** 0.0
23394 H100 53.6651 85.3587 91.2123 H 0.0 **** 0.0
23395 H101 49.2363 87.0847 91.8205 H 0.0 **** 0.0
23396 H102 57.1138 78.0211 95.1724 H 0.0 **** 0.0
23397 C1 99.2746 36.1136 0.432773 C 0.0 **** 0.0
23398 C2 100.527 35.5724 0.758823 C 0.0 **** 0.0
23399 C3 100.999 35.6852 2.03826 C 0.0 **** 0.0
23400 C4 100.209 36.2829 3.04082 C 0.0 **** 0.0
23401 C5 98.9654 36.851 2.72866 C 0.0 **** 0.0
23402 C6 98.439 36.6603 1.42426 C 0.0 **** 0.0
23403 C7 100.919 36.1426 4.33475 C 0.0 **** 0.0
23404 C8 102.203 35.6762 4.01695 C 0.0 **** 0.0
23405 C9 102.337 35.3418 2.53299 C 0.0 **** 0.0
23406 C10 103.16 35.3906 5.06966 C 0.0 **** 0.0
23407 C11 102.72 35.5408 6.44405 C 0.0 **** 0.0
23408 C12 101.379 35.9569 6.72308 C 0.0 **** 0.0
23409 C13 100.497 36.3768 5.65722 C 0.0 **** 0.0
23410 C14 99.2118 37.1203 6.0014 C 0.0 **** 0.0
23411 C15 99.0668 37.5183 7.50229 C 0.0 **** 0.0
23412 C16 99.4655 36.3398 8.36736 C 0.0 **** 0.0
23413 C17 100.891 35.9413 8.09511 C 0.0 **** 0.0
23414 C18 101.711 35.4417 9.10447 C 0.0 **** 0.0
23415 C19 102.958 34.8923 8.75459 C 0.0 **** 0.0
23416 C20 103.574 35.1746 7.51682 C 0.0 **** 0.0
23417 C21 104.914 34.7867 7.14431 C 0.0 **** 0.0
23418 C22 105.25 34.5145 5.81306 C 0.0 **** 0.0
23419 C23 104.442 34.8179 4.77291 C 0.0 **** 0.0
23420 C24 103.316 33.6565 9.5817 C 0.0 **** 0.0
23421 C25 103.196 33.8868 11.0507 C 0.0 **** 0.0
23422 C26 102.119 34.7045 11.5265 C 0.0 **** 0.0
23423 C27 101.192 35.3863 10.5688 C 0.0 **** 0.0
23424 C28 101.76 34.6638 12.9364 C 0.0 **** 0.0
23425 C29 102.556 33.8878 13.8667 C 0.0 **** 0.0
23426 C30 103.59 33.0809 13.3643 C 0.0 **** 0.0
23427 C31 103.937 33.0731 12.0032 C 0.0 **** 0.0
23428 C32 104.351 32.2536 14.3212 C 0.0 **** 0.0
23429 C33 103.848 32.1454 15.7543 C 0.0 **** 0.0
23430 C34 103.268 33.421 16.27 C 0.0 **** 0.0
23431 C35 102.133 33.8977 15.3513 C 0.0 **** 0.0
23432 C36 105.053 32.2475 11.6246 C 0.0 **** 0.0
23433 C37 105.857 31.5474 12.5598 C 0.0 **** 0.0
23434 C38 105.419 31.4876 13.8981 C 0.0 **** 0.0
23435 C39 106.638 33.8961 5.72091 C 0.0 **** 0.0
23436 C40 107.088 33.9627 7.11141 C 0.0 **** 0.0
23437 C41 106.099 34.5277 7.89821 C 0.0 **** 0.0
23438 C42 106.326 34.7369 9.28029 C 0.0 **** 0.0
23439 C43 107.479 34.2081 9.87983 C 0.0 **** 0.0
23440 C44 108.418 33.5278 9.07486 C 0.0 **** 0.0
23441 C45 108.258 33.4507 7.66845 C 0.0 **** 0.0
23442 C46 109.346 33.0038 6.88304 C 0.0 **** 0.0
23443 C47 110.544 32.5891 7.4638 C 0.0 **** 0.0
23444 C48 110.641 32.4762 8.86693 C 0.0 **** 0.0
23445 C49 109.547 32.8914 9.68838 C 0.0 **** 0.0
23446 C50 109.634 32.8588 11.0993 C 0.0 **** 0.0
23447 C51 108.712 33.6005 11.8697 C 0.0 **** 0.0
23448 C52 107.653 34.3052 11.2829 C 0.0 **** 0.0
23449 O53 98.8284 36.0985 -0.887519 O 0.0 **** 0.0
23450 C54 97.1055 37.2548 1.05056 C 0.0 **** 0.0
23451 O55 104.786 34.4384 3.48445 O 0.0 **** 0.0
23452 C56 111.717 32.1779 6.58021 C 0.0 **** 0.0
23453 C57 111.411 30.98 5.67064 C 0.0 **** 0.0
23454 O58 107.055 30.9052 12.2189 O 0.0 **** 0.0
23455 O59 100.506 35.1659 13.392 O 0.0 **** 0.0
23456 O60 110.58 32.1064 11.7823 O 0.0 **** 0.0
23457 H61 101.135 35.1864 0.0356384 H 0.0 **** 0.0
23458 H62 98.3632 37.3606 3.48349 H 0.0 **** 0.0
23459 H63 103.11 35.9712 2.02848 H 0.0 **** 0.0
23460 H64 102.535 34.2583 2.35929 H 0.0 **** 0.0
23461 H65 99.1942 38.0498 5.43521 H 0.0 **** 0.0
23462 H66 98.3316 36.4941 5.72404 H 0.0 **** 0.0
23463 H67 99.6789 38.4041 7.72838 H 0.0 **** 0.0
23464 H68 98.0032 37.7349 7.61575 H 0.0 **** 0.0
23465 H69 99.3435 36.7077 9.40605 H 0.0 **** 0.0
23466 H70 98.7939 35.4801 8.17667 H 0.0 **** 0.0
23467 H71 102.543 32.8807 9.33044 H 0.0 **** 0.0
23468 H72 100.271 34.7868 10.573 H 0.0 **** 0.0
23469 H73 103.024 31.4021 15.8407 H 0.0 **** 0.0
23470 H74 104.695 31.7629 16.3549 H 0.0 **** 0.0
23471 H75 102.86 33.2446 17.3008 H 0.0 **** 0.0
23472 H76 104.079 34.1849 16.3139 H 0.0 **** 0.0
23473 H77 101.203 33.3143 15.4409 H 0.0 **** 0.0
23474 H78 101.972 34.9741 15.5637 H 0.0 **** 0.0
23475 H79 105.327 32.097 10.6059 H 0.0 **** 0.0
23476 H80 105.983 30.9323 14.6021 H 0.0 **** 0.0
23477 H81 106.64 32.8751 5.32953 H 0.0 **** 0.0
23478 H82 107.296 34.4927 5.097 H 0.0 **** 0.0
23479 H83 105.525 35.1708 9.88338 H 0.0 **** 0.0
23480 H84 109.274 33.0313 5.81576 H 0.0 **** 0.0
23481 H85 111.462 32.082 9.33089 H 0.0 **** 0.0
23482 H86 108.829 33.702 12.948 H 0.0 **** 0.0
23483 H87 106.943 34.7968 11.8877 H 0.0 **** 0.0
23484 H88 99.5036 35.702 -1.53315 H 0.0 **** 0.0
23485 H89 97.1184 38.3537 1.08908 H 0.0 **** 0.0
23486 H90 96.2263 36.817 1.61127 H 0.0 **** 0.0
23487 H91 96.854 37.1055 -0.0146862 H 0.0 **** 0.0
23488 H92 105.7 34.0609 3.28977 H 0.0 **** 0.0
23489 H93 112.034 33.0511 6.01105 H 0.0 **** 0.0
23490 H94 112.381 30.3971 5.45724 H 0.0 **** 0.0
23491 H95 110.987 31.3895 4.68019 H 0.0 **** 0.0
23492 H96 110.639 30.352 6.16706 H 0.0 **** 0.0
23493 H97 107.238 30.8441 11.2272 H 0.0 **** 0.0
23494 H98 99.9292 35.5733 12.7016 H 0.0 **** 0.0
23495 H99 110.806 31.2422 11.2664 H 0.0 **** 0.0
23496 H100 104.263 33.2745 9.15944 H 0.0 **** 0.0
23497 H101 100.987 36.388 10.9365 H 0.0 **** 0.0
23498 H102 112.539 31.8218 7.22153 H 0.0 **** 0.0
23499 C1 14.5182 48.0561 88.8933 C 0.0 **** 0.0
23500 C2 13.6333 46.9295 89.0164 C 0.0 **** 0.0
23501 C3 12.5471 46.8583 88.1764 C 0.0 **** 0.0
23502 C4 12.1778 47.8697 87.3141 C 0.0 **** 0.0
23503 C5 12.9276 49.0468 87.3067 C 0.0 **** 0.0
23504 C6 14.0974 49.1236 88.079 C 0.0 **** 0.0
23505 C7 10.9119 47.4804 86.698 C 0.0 **** 0.0
23506 C8 10.6507 46.1189 87.0558 C 0.0 **** 0.0
23507 C9 11.6087 45.6753 88.0789 C 0.0 **** 0.0
23508 C10 9.64505 45.3606 86.3483 C 0.0 **** 0.0
23509 C11 8.92567 46.0618 85.3313 C 0.0 **** 0.0
23510 C12 9.05927 47.4571 85.1756 C 0.0 **** 0.0
23511 C13 10.0166 48.2083 85.8551 C 0.0 **** 0.0
23512 C14 10.0904 49.7354 85.7158 C 0.0 **** 0.0
23513 C15 8.74801 50.3268 85.2384 C 0.0 **** 0.0
23514 C16 8.11821 49.5948 84.087 C 0.0 **** 0.0
23515 C17 8.1435 48.1045 84.181 C 0.0 **** 0.0
23516 C18 7.40385 47.3433 83.2701 C 0.0 **** 0.0
23517 C19 7.61244 45.9749 83.2603 C 0.0 **** 0.0
23518 C20 8.05767 45.3592 84.4649 C 0.0 **** 0.0
23519 C21 7.71776 44.0188 84.7672 C 0.0 **** 0.0
23520 C22 8.36256 43.3245 85.7719 C 0.0 **** 0.0
23521 C23 9.37832 43.9496 86.5752 C 0.0 **** 0.0
23522 C24 7.76782 45.3319 81.8965 C 0.0 **** 0.0
23523 C25 6.65582 45.7302 80.959 C 0.0 **** 0.0
23524 C26 5.92928 46.9279 81.1985 C 0.0 **** 0.0
23525 C27 6.45661 47.933 82.2292 C 0.0 **** 0.0
23526 C28 4.88315 47.267 80.2946 C 0.0 **** 0.0
23527 C29 4.51337 46.4378 79.2312 C 0.0 **** 0.0
23528 C30 5.30379 45.3094 78.9333 C 0.0 **** 0.0
23529 C31 6.40477 44.9469 79.8187 C 0.0 **** 0.0
23530 C32 5.09558 44.534 77.6878 C 0.0 **** 0.0
23531 C33 3.90097 44.7971 76.8471 C 0.0 **** 0.0
23532 C34 2.77849 45.4778 77.6833 C 0.0 **** 0.0
23533 C35 3.28145 46.7385 78.3924 C 0.0 **** 0.0
23534 C36 7.27587 43.9306 79.3951 C 0.0 **** 0.0
23535 C37 7.14036 43.2942 78.1774 C 0.0 **** 0.0
23536 C38 6.0928 43.6193 77.3062 C 0.0 **** 0.0
23537 C39 7.69708 41.9639 85.9666 C 0.0 **** 0.0
23538 C40 6.47457 42.1423 85.0972 C 0.0 **** 0.0
23539 C41 6.57068 43.3097 84.3628 C 0.0 **** 0.0
23540 C42 5.45146 43.747 83.5913 C 0.0 **** 0.0
23541 C43 4.29688 42.9262 83.5209 C 0.0 **** 0.0
23542 C44 4.25376 41.7152 84.1699 C 0.0 **** 0.0
23543 C45 5.31352 41.3588 85.108 C 0.0 **** 0.0
23544 C46 5.20892 40.1943 85.8775 C 0.0 **** 0.0
23545 C47 4.03121 39.4089 85.8064 C 0.0 **** 0.0
23546 C48 3.02936 39.7327 84.8609 C 0.0 **** 0.0
23547 C49 3.06679 40.8949 84.1103 C 0.0 **** 0.0
23548 C50 1.90332 41.3874 83.3907 C 0.0 **** 0.0
23549 C51 1.96728 42.6462 82.8351 C 0.0 **** 0.0
23550 C52 3.15008 43.3964 82.8584 C 0.0 **** 0.0
23551 O53 15.6248 48.2991 89.7174 O 0.0 **** 0.0
23552 C54 14.8809 50.3756 88.229 C 0.0 **** 0.0
23553 O55 10.0312 43.3078 87.6569 O 0.0 **** 0.0
23554 C56 3.91718 38.0749 86.4451 C 0.0 **** 0.0
23555 C57 4.56765 36.9833 85.556 C 0.0 **** 0.0
23556 O58 7.89604 42.1205 77.9257 O 0.0 **** 0.0
23557 O59 4.17462 48.4543 80.3668 O 0.0 **** 0.0
23558 O60 0.698378 40.6622 83.2468 O 0.0 **** 0.0
23559 H61 13.8535 46.1568 89.6931 H 0.0 **** 0.0
23560 H62 12.6579 49.8806 86.7467 H 0.0 **** 0.0
23561 H63 11.0066 45.5522 89.0425 H 0.0 **** 0.0
23562 H64 12.1662 44.7568 87.7913 H 0.0 **** 0.0
23563 H65 10.2546 50.1395 86.7552 H 0.0 **** 0.0
23564 H66 10.9645 49.9822 85.1065 H 0.0 **** 0.0
23565 H67 8.01951 50.3222 86.0759 H 0.0 **** 0.0
23566 H68 8.85607 51.372 84.9563 H 0.0 **** 0.0
23567 H69 7.04426 49.8991 84.0208 H 0.0 **** 0.0
23568 H70 8.59128 49.9322 83.1373 H 0.0 **** 0.0
23569 H71 8.7192 45.6023 81.4039 H 0.0 **** 0.0
23570 H72 6.99047 48.7436 81.7385 H 0.0 **** 0.0
23571 H73 4.17249 45.5329 76.0641 H 0.0 **** 0.0
23572 H74 3.52256 43.8549 76.3579 H 0.0 **** 0.0
23573 H75 1.9423 45.7187 77.0035 H 0.0 **** 0.0
23574 H76 2.48913 44.7204 78.4459 H 0.0 **** 0.0
23575 H77 3.4907 47.53 77.6043 H 0.0 **** 0.0
23576 H78 2.50491 47.0222 79.1111 H 0.0 **** 0.0
23577 H79 8.03909 43.5524 80.0093 H 0.0 **** 0.0
23578 H80 6.04682 43.1455 76.3276 H 0.0 **** 0.0
23579 H81 8.40614 41.1727 85.6113 H 0.0 **** 0.0
23580 H82 7.44202 41.7979 87.0411 H 0.0 **** 0.0
23581 H83 5.43229 44.7011 83.0937 H 0.0 **** 0.0
23582 H84 6.05377 39.8592 86.4436 H 0.0 **** 0.0
23583 H85 2.18196 39.0723 84.762 H 0.0 **** 0.0
23584 H86 1.08604 43.0358 82.4437 H 0.0 **** 0.0
23585 H87 3.0674 44.3949 82.4518 H 0.0 **** 0.0
23586 H88 15.9083 47.4712 90.2397 H 0.0 **** 0.0
23587 H89 14.6323 50.8486 89.1715 H 0.0 **** 0.0
23588 H90 14.6101 51.1216 87.5157 H 0.0 **** 0.0
23589 H91 15.9367 50.112 88.1306 H 0.0 **** 0.0
23590 H92 9.7295 42.3828 87.9103 H 0.0 **** 0.0
23591 H93 4.3071 38.0576 87.4954 H 0.0 **** 0.0
23592 H94 4.55894 35.9902 86.0576 H 0.0 **** 0.0
23593 H95 5.53965 37.283 85.1531 H 0.0 **** 0.0
23594 H96 3.9343 36.7592 84.6634 H 0.0 **** 0.0
23595 H97 8.62721 41.9278 78.5861 H 0.0 **** 0.0
23596 H98 4.36228 48.9989 81.1962 H 0.0 **** 0.0
23597 H99 0.754841 39.6527 83.3501 H 0.0 **** 0.0
23598 H100 7.72554 44.2458 82.0905 H 0.0 **** 0.0
23599 H101 5.61643 48.3505 82.8145 H 0.0 **** 0.0
23600 H102 2.79247 37.8463 86.5448 H 0.0 **** 0.0
23601 C1 95.1401 99.8895 76.3498 C 0.0 **** 0.0
23602 C2 94.9575 98.6392 75.7281 C 0.0 **** 0.0
23603 C3 93.8469 97.8477 76.0754 C 0.0 **** 0.0
23604 C4 92.9114 98.2689 76.9824 C 0.0 **** 0.0
23605 C5 93.0731 99.5533 77.5625 C 0.0 **** 0.0
23606 C6 94.1644 100.4 77.2134 C 0.0 **** 0.0
23607 C7 91.9787 97.1194 77.2531 C 0.0 **** 0.0
23608 C8 92.3662 96.0373 76.4794 C 0.0 **** 0.0
23609 C9 93.6601 96.3907 75.7631 C 0.0 **** 0.0
23610 C10 91.6287 94.7801 76.495 C 0.0 **** 0.0
23611 C11 90.4371 94.6883 77.2403 C 0.0 **** 0.0
23612 C12 90.0132 95.8289 77.959 C 0.0 **** 0.0
23613 C13 90.8062 97.0229 78.0118 C 0.0 **** 0.0
23614 C14 90.4879 98.1178 78.9679 C 0.0 **** 0.0
23615 C15 89.3881 97.8222 79.9443 C 0.0 **** 0.0
23616 C16 88.245 97.0714 79.269 C 0.0 **** 0.0
23617 C17 88.7836 95.7751 78.7648 C 0.0 **** 0.0
23618 C18 88.0495 94.5483 78.8326 C 0.0 **** 0.0
23619 C19 88.4317 93.4906 77.9833 C 0.0 **** 0.0
23620 C20 89.718 93.4775 77.4008 C 0.0 **** 0.0
23621 C21 90.3965 92.2954 76.942 C 0.0 **** 0.0
23622 C22 91.5182 92.3832 76.1408 C 0.0 **** 0.0
23623 C23 92.0985 93.6029 75.8357 C 0.0 **** 0.0
23624 C24 87.3453 92.521 77.5617 C 0.0 **** 0.0
23625 C25 86.4758 92.0978 78.7472 C 0.0 **** 0.0
23626 C26 86.3259 93.0035 79.8442 C 0.0 **** 0.0
23627 C27 86.8272 94.4334 79.7253 C 0.0 **** 0.0
23628 C28 85.5659 92.5919 80.9726 C 0.0 **** 0.0
23629 C29 85.1347 91.2543 81.0788 C 0.0 **** 0.0
23630 C30 85.217 90.4182 79.9465 C 0.0 **** 0.0
23631 C31 85.8653 90.8668 78.788 C 0.0 **** 0.0
23632 C32 84.6673 89.0482 79.968 C 0.0 **** 0.0
23633 C33 83.8179 88.6038 81.1038 C 0.0 **** 0.0
23634 C34 84.1886 89.3343 82.3623 C 0.0 **** 0.0
23635 C35 84.3025 90.8492 82.3043 C 0.0 **** 0.0
23636 C36 85.8052 90.0679 77.607 C 0.0 **** 0.0
23637 C37 85.3124 88.7545 77.6887 C 0.0 **** 0.0
23638 C38 84.8831 88.206 78.892 C 0.0 **** 0.0
23639 C39 92.1701 91.0644 75.8578 C 0.0 **** 0.0
23640 C40 91.2577 90.2093 76.636 C 0.0 **** 0.0
23641 C41 90.3266 90.9487 77.3234 C 0.0 **** 0.0
23642 C42 89.5467 90.3979 78.3419 C 0.0 **** 0.0
23643 C43 89.6459 89.0085 78.6142 C 0.0 **** 0.0
23644 C44 90.5671 88.2416 77.8766 C 0.0 **** 0.0
23645 C45 91.4139 88.8575 76.8824 C 0.0 **** 0.0
23646 C46 92.2943 88.0695 76.2136 C 0.0 **** 0.0
23647 C47 92.3242 86.6634 76.2919 C 0.0 **** 0.0
23648 C48 91.5185 86.0519 77.2887 C 0.0 **** 0.0
23649 C49 90.729 86.8787 78.1506 C 0.0 **** 0.0
23650 C50 89.9844 86.3281 79.2457 C 0.0 **** 0.0
23651 C51 88.9329 87.0508 79.8333 C 0.0 **** 0.0
23652 C52 88.8115 88.3981 79.5686 C 0.0 **** 0.0
23653 O53 96.2971 100.639 76.0459 O 0.0 **** 0.0
23654 C54 94.3745 101.688 77.9345 C 0.0 **** 0.0
23655 O55 93.2444 93.7108 75.0702 O 0.0 **** 0.0
23656 C56 93.3437 85.9128 75.4383 C 0.0 **** 0.0
23657 C57 92.7337 85.464 74.1856 C 0.0 **** 0.0
23658 O58 85.2874 87.9314 76.5791 O 0.0 **** 0.0
23659 O59 85.202 93.4648 81.9913 O 0.0 **** 0.0
23660 O60 90.2455 85.0769 79.805 O 0.0 **** 0.0
23661 H61 95.7834 98.2261 75.1549 H 0.0 **** 0.0
23662 H62 92.3135 99.8721 78.2596 H 0.0 **** 0.0
23663 H63 94.5443 95.8942 76.1896 H 0.0 **** 0.0
23664 H64 93.6014 96.2246 74.6546 H 0.0 **** 0.0
23665 H65 91.389 98.3527 79.5985 H 0.0 **** 0.0
23666 H66 90.1841 99.056 78.4307 H 0.0 **** 0.0
23667 H67 89.8675 97.2457 80.7753 H 0.0 **** 0.0
23668 H68 88.9951 98.7838 80.3333 H 0.0 **** 0.0
23669 H69 87.3802 96.9887 79.9257 H 0.0 **** 0.0
23670 H70 87.8625 97.6459 78.379 H 0.0 **** 0.0
23671 H71 86.6375 93.1409 76.9371 H 0.0 **** 0.0
23672 H72 85.9882 95.0479 79.325 H 0.0 **** 0.0
23673 H73 82.7073 88.7282 80.9322 H 0.0 **** 0.0
23674 H74 83.8932 87.5197 81.2166 H 0.0 **** 0.0
23675 H75 83.5067 89.093 83.152 H 0.0 **** 0.0
23676 H76 85.1575 88.9221 82.7262 H 0.0 **** 0.0
23677 H77 83.3073 91.3181 82.3093 H 0.0 **** 0.0
23678 H78 84.8463 91.2262 83.2027 H 0.0 **** 0.0
23679 H79 86.1538 90.3754 76.6188 H 0.0 **** 0.0
23680 H80 84.5563 87.1532 78.8272 H 0.0 **** 0.0
23681 H81 92.128 90.7458 74.7878 H 0.0 **** 0.0
23682 H82 93.25 91.0726 76.2248 H 0.0 **** 0.0
23683 H83 88.9273 91.0541 78.9128 H 0.0 **** 0.0
23684 H84 92.9841 88.5652 75.5128 H 0.0 **** 0.0
23685 H85 91.5897 85.0419 77.3805 H 0.0 **** 0.0
23686 H86 88.3666 86.6063 80.6163 H 0.0 **** 0.0
23687 H87 88.0897 88.9899 80.1431 H 0.0 **** 0.0
23688 H88 96.9677 100.201 75.4503 H 0.0 **** 0.0
23689 H89 94.6082 102.494 77.1881 H 0.0 **** 0.0
23690 H90 95.0833 101.538 78.7722 H 0.0 **** 0.0
23691 H91 93.3997 102.066 78.3373 H 0.0 **** 0.0
23692 H92 93.3493 92.9981 74.4118 H 0.0 **** 0.0
23693 H93 94.1924 86.5923 75.1463 H 0.0 **** 0.0
23694 H94 93.4358 84.8351 73.5781 H 0.0 **** 0.0
23695 H95 92.5113 86.3824 73.6167 H 0.0 **** 0.0
23696 H96 91.8311 84.7802 74.4055 H 0.0 **** 0.0
23697 H97 85.5983 88.3769 75.7431 H 0.0 **** 0.0
23698 H98 85.2938 94.4558 81.8026 H 0.0 **** 0.0
23699 H99 91.1592 84.7298 79.5972 H 0.0 **** 0.0
23700 H100 87.7325 91.656 76.9583 H 0.0 **** 0.0
23701 H101 87.1087 94.813 80.7353 H 0.0 **** 0.0
23702 H102 93.8151 85.0711 76.0455 H 0.0 **** 0.0
23703 C1 10.4587 95.3554 66.2868 C 0.0 **** 0.0
23704 C2 10.6615 96.317 65.2679 C 0.0 **** 0.0
23705 C3 10.2783 95.9471 63.9341 C 0.0 **** 0.0
23706 C4 9.74048 94.6959 63.6296 C 0.0 **** 0.0
23707 C5 9.46106 93.7712 64.6829 C 0.0 **** 0.0
23708 C6 9.85181 94.1122 65.9775 C 0.0 **** 0.0
23709 C7 9.53946 94.6547 62.1826 C 0.0 **** 0.0
23710 C8 9.93754 95.8939 61.652 C 0.0 **** 0.0
23711 C9 10.4255 96.7878 62.7364 C 0.0 **** 0.0
23712 C10 9.87388 96.1574 60.2602 C 0.0 **** 0.0
23713 C11 9.29891 95.1443 59.4333 C 0.0 **** 0.0
23714 C12 8.8108 93.941 60.0096 C 0.0 **** 0.0
23715 C13 9.00633 93.6369 61.3765 C 0.0 **** 0.0
23716 C14 8.5736 92.3152 61.9452 C 0.0 **** 0.0
23717 C15 8.47663 91.206 60.8402 C 0.0 **** 0.0
23718 C16 7.58564 91.6719 59.6369 C 0.0 **** 0.0
23719 C17 8.05032 93.0216 59.0932 C 0.0 **** 0.0
23720 C18 7.49331 93.5803 57.9311 C 0.0 **** 0.0
23721 C19 8.06203 94.7548 57.3343 C 0.0 **** 0.0
23722 C20 9.16828 95.3911 57.9843 C 0.0 **** 0.0
23723 C21 10.0283 96.3771 57.4238 C 0.0 **** 0.0
23724 C22 10.5327 97.3201 58.2534 C 0.0 **** 0.0
23725 C23 10.3738 97.3339 59.6343 C 0.0 **** 0.0
23726 C24 7.53573 95.3553 56.0677 C 0.0 **** 0.0
23727 C25 6.22368 94.7875 55.5891 C 0.0 **** 0.0
23728 C26 5.56323 93.7357 56.2554 C 0.0 **** 0.0
23729 C27 6.2193 92.9927 57.4048 C 0.0 **** 0.0
23730 C28 4.28443 93.2605 55.8403 C 0.0 **** 0.0
23731 C29 3.56189 93.8907 54.836 C 0.0 **** 0.0
23732 C30 4.10424 95.0475 54.2788 C 0.0 **** 0.0
23733 C31 5.4809 95.4102 54.5153 C 0.0 **** 0.0
23734 C32 3.33976 95.783 53.2859 C 0.0 **** 0.0
23735 C33 1.88941 95.499 53.078 C 0.0 **** 0.0
23736 C34 1.70447 93.9865 53.0328 C 0.0 **** 0.0
23737 C35 2.20913 93.3117 54.3336 C 0.0 **** 0.0
23738 C36 6.06985 96.3379 53.6287 C 0.0 **** 0.0
23739 C37 5.36164 96.9728 52.6084 C 0.0 **** 0.0
23740 C38 3.99713 96.7651 52.5174 C 0.0 **** 0.0
23741 C39 11.4415 98.2415 57.538 C 0.0 **** 0.0
23742 C40 11.4881 97.6212 56.2074 C 0.0 **** 0.0
23743 C41 10.6955 96.4731 56.1918 C 0.0 **** 0.0
23744 C42 10.8509 95.5206 55.1861 C 0.0 **** 0.0
23745 C43 11.7669 95.7475 54.1556 C 0.0 **** 0.0
23746 C44 12.4826 96.9853 54.1074 C 0.0 **** 0.0
23747 C45 12.3253 97.9192 55.1524 C 0.0 **** 0.0
23748 C46 13.0583 99.1096 55.1424 C 0.0 **** 0.0
23749 C47 13.9292 99.3955 54.1199 C 0.0 **** 0.0
23750 C48 14.0636 98.4819 53.0542 C 0.0 **** 0.0
23751 C49 13.3398 97.2744 53.0008 C 0.0 **** 0.0
23752 C50 13.4891 96.3004 51.9658 C 0.0 **** 0.0
23753 C51 12.8856 95.0496 52.1747 C 0.0 **** 0.0
23754 C52 12.044 94.7693 53.2343 C 0.0 **** 0.0
23755 O53 10.9614 95.5493 67.5873 O 0.0 **** 0.0
23756 C54 9.53875 93.1461 67.053 C 0.0 **** 0.0
23757 O55 10.9662 98.3152 60.42 O 0.0 **** 0.0
23758 C56 14.74 100.633 54.1317 C 0.0 **** 0.0
23759 C57 14.0267 101.775 53.4954 C 0.0 **** 0.0
23760 O58 5.93586 97.8796 51.7274 O 0.0 **** 0.0
23761 O59 3.72973 92.1332 56.4183 O 0.0 **** 0.0
23762 O60 14.1072 96.5791 50.7324 O 0.0 **** 0.0
23763 H61 11.2051 97.2803 65.4946 H 0.0 **** 0.0
23764 H62 9.04008 92.8124 64.5555 H 0.0 **** 0.0
23765 H63 11.4936 97.0521 62.6237 H 0.0 **** 0.0
23766 H64 9.80771 97.6773 62.8175 H 0.0 **** 0.0
23767 H65 9.38055 91.9859 62.6622 H 0.0 **** 0.0
23768 H66 7.62293 92.4279 62.5178 H 0.0 **** 0.0
23769 H67 9.47519 91.0294 60.4522 H 0.0 **** 0.0
23770 H68 8.12018 90.31 61.344 H 0.0 **** 0.0
23771 H69 7.72503 90.9182 58.8198 H 0.0 **** 0.0
23772 H70 6.51553 91.6958 60.0063 H 0.0 **** 0.0
23773 H71 7.3613 96.4608 56.273 H 0.0 **** 0.0
23774 H72 5.4936 92.9549 58.2275 H 0.0 **** 0.0
23775 H73 1.28883 95.9546 53.8963 H 0.0 **** 0.0
23776 H74 1.52885 96.0403 52.1521 H 0.0 **** 0.0
23777 H75 0.636953 93.7679 52.8596 H 0.0 **** 0.0
23778 H76 2.23987 93.5526 52.156 H 0.0 **** 0.0
23779 H77 1.42081 93.3391 55.1771 H 0.0 **** 0.0
23780 H78 2.37502 92.2137 54.0207 H 0.0 **** 0.0
23781 H79 7.12279 96.5642 53.6772 H 0.0 **** 0.0
23782 H80 3.48066 97.1956 51.7026 H 0.0 **** 0.0
23783 H81 11.0304 99.2778 57.5778 H 0.0 **** 0.0
23784 H82 12.4613 98.181 57.9645 H 0.0 **** 0.0
23785 H83 10.3991 94.4957 55.2386 H 0.0 **** 0.0
23786 H84 13.0288 99.7498 56.0373 H 0.0 **** 0.0
23787 H85 14.7514 98.6852 52.2466 H 0.0 **** 0.0
23788 H86 13.0059 94.2856 51.4295 H 0.0 **** 0.0
23789 H87 11.5487 93.7984 53.3147 H 0.0 **** 0.0
23790 H88 11.3446 96.4757 67.6811 H 0.0 **** 0.0
23791 H89 10.1317 92.2485 66.9839 H 0.0 **** 0.0
23792 H90 8.48601 92.8091 67.0231 H 0.0 **** 0.0
23793 H91 9.7177 93.6358 68.0607 H 0.0 **** 0.0
23794 H92 11.2408 99.1165 59.864 H 0.0 **** 0.0
23795 H93 15.0023 100.931 55.1954 H 0.0 **** 0.0
23796 H94 14.6896 102.64 53.3416 H 0.0 **** 0.0
23797 H95 13.0695 101.987 54.0562 H 0.0 **** 0.0
23798 H96 13.8217 101.425 52.4852 H 0.0 **** 0.0
23799 H97 6.89951 98.1217 51.913 H 0.0 **** 0.0
23800 H98 4.23611 91.6378 57.1399 H 0.0 **** 0.0
23801 H99 14.0601 97.5214 50.4429 H 0.0 **** 0.0
23802 H100 8.21451 95.18 55.2593 H 0.0 **** 0.0
23803 H101 6.43124 91.9308 57.1209 H 0.0 **** 0.0
23804 H102 15.6404 100.457 53.485 H 0.0 **** 0.0
23805 C1 57.9567 63.9457 96.5858 C 0.0 **** 0.0
23806 C2 57.9153 62.8268 95.7277 C 0.0 **** 0.0
23807 C3 58.3927 62.9306 94.4195 C 0.0 **** 0.0
23808 C4 58.8035 64.1334 93.9491 C 0.0 **** 0.0
23809 C5 59.051 65.2121 94.8738 C 0.0 **** 0.0
23810 C6 58.5663 65.1373 96.1595 C 0.0 **** 0.0
23811 C7 59.0307 64.0061 92.5271 C 0.0 **** 0.0
23812 C8 58.8754 62.6706 92.1761 C 0.0 **** 0.0
23813 C9 58.4779 61.8637 93.3937 C 0.0 **** 0.0
23814 C10 58.9558 62.334 90.8062 C 0.0 **** 0.0
23815 C11 59.2284 63.3541 89.832 C 0.0 **** 0.0
23816 C12 59.4642 64.675 90.233 C 0.0 **** 0.0
23817 C13 59.2727 65.0245 91.5816 C 0.0 **** 0.0
23818 C14 58.9875 66.4852 91.9409 C 0.0 **** 0.0
23819 C15 58.78 67.435 90.7796 C 0.0 **** 0.0
23820 C16 59.8329 67.1863 89.7096 C 0.0 **** 0.0
23821 C17 59.781 65.733 89.2761 C 0.0 **** 0.0
23822 C18 60.1244 65.327 87.9627 C 0.0 **** 0.0
23823 C19 59.9846 63.9704 87.5719 C 0.0 **** 0.0
23824 C20 59.2565 63.1282 88.411 C 0.0 **** 0.0
23825 C21 58.6226 61.9258 88.0154 C 0.0 **** 0.0
23826 C22 58.3388 60.9059 88.9394 C 0.0 **** 0.0
23827 C23 58.5654 61.0847 90.3085 C 0.0 **** 0.0
23828 C24 60.9177 63.5138 86.4816 C 0.0 **** 0.0
23829 C25 60.8817 64.4987 85.3172 C 0.0 **** 0.0
23830 C26 60.7248 65.88 85.5373 C 0.0 **** 0.0
23831 C27 60.5412 66.3846 86.9499 C 0.0 **** 0.0
23832 C28 60.6677 66.8231 84.4577 C 0.0 **** 0.0
23833 C29 60.6702 66.3467 83.1229 C 0.0 **** 0.0
23834 C30 60.9692 64.9859 82.9246 C 0.0 **** 0.0
23835 C31 61.0706 64.0588 84.0032 C 0.0 **** 0.0
23836 C32 61.2601 64.4983 81.5508 C 0.0 **** 0.0
23837 C33 61.2327 65.4396 80.4005 C 0.0 **** 0.0
23838 C34 60.2418 66.5693 80.6342 C 0.0 **** 0.0
23839 C35 60.5379 67.3295 81.9337 C 0.0 **** 0.0
23840 C36 61.4948 62.7203 83.7095 C 0.0 **** 0.0
23841 C37 61.6592 62.2719 82.4047 C 0.0 **** 0.0
23842 C38 61.5278 63.1345 81.3508 C 0.0 **** 0.0
23843 C39 57.7648 59.7286 88.1962 C 0.0 **** 0.0
23844 C40 57.615 60.2658 86.8323 C 0.0 **** 0.0
23845 C41 58.0609 61.5823 86.8203 C 0.0 **** 0.0
23846 C42 57.8865 62.3972 85.6908 C 0.0 **** 0.0
23847 C43 57.2823 61.8695 84.5806 C 0.0 **** 0.0
23848 C44 56.8058 60.5082 84.5578 C 0.0 **** 0.0
23849 C45 57.0919 59.6649 85.6376 C 0.0 **** 0.0
23850 C46 56.6383 58.3119 85.5932 C 0.0 **** 0.0
23851 C47 56.0389 57.7645 84.4307 C 0.0 **** 0.0
23852 C48 55.7547 58.6742 83.3577 C 0.0 **** 0.0
23853 C49 56.1193 60.0395 83.4226 C 0.0 **** 0.0
23854 C50 55.8675 60.8964 82.3515 C 0.0 **** 0.0
23855 C51 56.3909 62.1713 82.3399 C 0.0 **** 0.0
23856 C52 57.0457 62.69 83.474 C 0.0 **** 0.0
23857 O53 57.4117 63.8655 97.8645 O 0.0 **** 0.0
23858 C54 58.6175 66.3781 96.9761 C 0.0 **** 0.0
23859 O55 58.3591 60.0252 91.1648 O 0.0 **** 0.0
23860 C56 55.6598 56.2865 84.3357 C 0.0 **** 0.0
23861 C57 56.2465 55.4895 83.1757 C 0.0 **** 0.0
23862 O58 61.9253 60.9315 82.1682 O 0.0 **** 0.0
23863 O59 60.4822 68.2042 84.6915 O 0.0 **** 0.0
23864 O60 55.0714 60.5439 81.2538 O 0.0 **** 0.0
23865 H61 57.5224 61.895 96.0592 H 0.0 **** 0.0
23866 H62 59.5259 66.1338 94.4855 H 0.0 **** 0.0
23867 H63 57.4977 61.3787 93.2728 H 0.0 **** 0.0
23868 H64 59.2553 61.1202 93.6176 H 0.0 **** 0.0
23869 H65 58.1367 66.6054 92.6336 H 0.0 **** 0.0
23870 H66 59.8758 66.8893 92.536 H 0.0 **** 0.0
23871 H67 57.7437 67.2853 90.372 H 0.0 **** 0.0
23872 H68 58.7941 68.4938 91.1152 H 0.0 **** 0.0
23873 H69 59.5714 67.8762 88.9118 H 0.0 **** 0.0
23874 H70 60.84 67.3797 90.0775 H 0.0 **** 0.0
23875 H71 61.9112 63.5642 86.8517 H 0.0 **** 0.0
23876 H72 61.4506 66.886 87.3011 H 0.0 **** 0.0
23877 H73 62.2302 65.955 80.2376 H 0.0 **** 0.0
23878 H74 61.042 64.8701 79.4547 H 0.0 **** 0.0
23879 H75 60.2358 67.2646 79.7717 H 0.0 **** 0.0
23880 H76 59.2065 66.146 80.7241 H 0.0 **** 0.0
23881 H77 61.4553 67.9238 81.8661 H 0.0 **** 0.0
23882 H78 59.6859 68.0864 82.13 H 0.0 **** 0.0
23883 H79 61.6809 62.0145 84.4538 H 0.0 **** 0.0
23884 H80 61.5809 62.7818 80.3257 H 0.0 **** 0.0
23885 H81 58.4832 58.9022 88.3209 H 0.0 **** 0.0
23886 H82 56.7758 59.4369 88.6038 H 0.0 **** 0.0
23887 H83 58.1265 63.4578 85.7655 H 0.0 **** 0.0
23888 H84 56.854 57.6137 86.3871 H 0.0 **** 0.0
23889 H85 55.3115 58.249 82.4607 H 0.0 **** 0.0
23890 H86 56.2983 62.832 81.4982 H 0.0 **** 0.0
23891 H87 57.5258 63.6647 83.4413 H 0.0 **** 0.0
23892 H88 56.9046 62.9964 98.0166 H 0.0 **** 0.0
23893 H89 57.6442 66.4871 97.5159 H 0.0 **** 0.0
23894 H90 58.8326 67.2989 96.3581 H 0.0 **** 0.0
23895 H91 59.4522 66.1903 97.6817 H 0.0 **** 0.0
23896 H92 57.9202 59.2142 90.7535 H 0.0 **** 0.0
23897 H93 56.0013 55.6951 85.235 H 0.0 **** 0.0
23898 H94 55.6825 54.5274 82.9766 H 0.0 **** 0.0
23899 H95 57.3257 55.2174 83.3808 H 0.0 **** 0.0
23900 H96 56.2425 56.0953 82.2536 H 0.0 **** 0.0
23901 H97 62.3803 60.4413 82.9325 H 0.0 **** 0.0
23902 H98 60.7873 68.6244 85.549 H 0.0 **** 0.0
23903 H99 54.4051 59.7885 81.4401 H 0.0 **** 0.0
23904 H100 60.6497 62.4813 86.1782 H 0.0 **** 0.0
23905 H101 59.7 67.0435 86.9295 H 0.0 **** 0.0
23906 H102 54.5533 56.2338 84.2954 H 0.0 **** 0.0
23907 C1 5.87248 25.8427 75.1649 C 0.0 **** 0.0
23908 C2 6.17415 25.7285 73.7602 C 0.0 **** 0.0
23909 C3 5.50832 26.5877 72.852 C 0.0 **** 0.0
23910 C4 4.67223 27.5861 73.3149 C 0.0 **** 0.0
23911 C5 4.42394 27.7379 74.6973 C 0.0 **** 0.0
23912 C6 4.95318 26.8213 75.6013 C 0.0 **** 0.0
23913 C7 4.41381 28.4567 72.1549 C 0.0 **** 0.0
23914 C8 5.08343 27.8802 71.0463 C 0.0 **** 0.0
23915 C9 5.74143 26.594 71.3923 C 0.0 **** 0.0
23916 C10 5.07919 28.537 69.7869 C 0.0 **** 0.0
23917 C11 4.45265 29.8457 69.7617 C 0.0 **** 0.0
23918 C12 3.75263 30.3769 70.8882 C 0.0 **** 0.0
23919 C13 3.7174 29.6389 72.0893 C 0.0 **** 0.0
23920 C14 2.99132 30.2151 73.2846 C 0.0 **** 0.0
23921 C15 1.87885 31.1725 72.8623 C 0.0 **** 0.0
23922 C16 2.3218 32.2719 71.8728 C 0.0 **** 0.0
23923 C17 3.1598 31.705 70.7366 C 0.0 **** 0.0
23924 C18 3.54291 32.5239 69.6759 C 0.0 **** 0.0
23925 C19 4.40132 32.0385 68.658 C 0.0 **** 0.0
23926 C20 4.6626 30.6185 68.5835 C 0.0 **** 0.0
23927 C21 5.18505 30.0072 67.4057 C 0.0 **** 0.0
23928 C22 5.69294 28.7309 67.456 C 0.0 **** 0.0
23929 C23 5.7178 27.9754 68.6526 C 0.0 **** 0.0
23930 C24 5.22987 33.0867 67.9468 C 0.0 **** 0.0
23931 C25 4.36249 34.2013 67.4091 C 0.0 **** 0.0
23932 C26 3.33741 34.6866 68.2824 C 0.0 **** 0.0
23933 C27 2.90423 33.9353 69.5475 C 0.0 **** 0.0
23934 C28 2.53972 35.782 67.8573 C 0.0 **** 0.0
23935 C29 2.69086 36.3266 66.5455 C 0.0 **** 0.0
23936 C30 3.79514 35.9095 65.7934 C 0.0 **** 0.0
23937 C31 4.59232 34.8381 66.1715 C 0.0 **** 0.0
23938 C32 4.16479 36.7013 64.571 C 0.0 **** 0.0
23939 C33 3.46507 38.0059 64.3475 C 0.0 **** 0.0
23940 C34 1.98804 37.8082 64.6208 C 0.0 **** 0.0
23941 C35 1.74537 37.4107 66.048 C 0.0 **** 0.0
23942 C36 5.64953 34.4478 65.2962 C 0.0 **** 0.0
23943 C37 5.88694 35.0845 64.0592 C 0.0 **** 0.0
23944 C38 5.14686 36.2197 63.6916 C 0.0 **** 0.0
23945 C39 6.08425 28.2817 66.0431 C 0.0 **** 0.0
23946 C40 5.67208 29.4877 65.254 C 0.0 **** 0.0
23947 C41 5.03216 30.4072 66.1064 C 0.0 **** 0.0
23948 C42 4.24286 31.4202 65.6098 C 0.0 **** 0.0
23949 C43 4.27894 31.6495 64.2164 C 0.0 **** 0.0
23950 C44 4.92164 30.7229 63.3347 C 0.0 **** 0.0
23951 C45 5.60505 29.6292 63.8725 C 0.0 **** 0.0
23952 C46 6.20201 28.6655 63.0063 C 0.0 **** 0.0
23953 C47 6.13641 28.8215 61.6089 C 0.0 **** 0.0
23954 C48 5.51563 29.9681 61.0903 C 0.0 **** 0.0
23955 C49 4.96536 30.9684 61.9101 C 0.0 **** 0.0
23956 C50 4.40726 32.1807 61.3896 C 0.0 **** 0.0
23957 C51 3.70673 33.0235 62.2621 C 0.0 **** 0.0
23958 C52 3.60497 32.7883 63.6536 C 0.0 **** 0.0
23959 O53 6.59432 25.1051 76.1107 O 0.0 **** 0.0
23960 C54 4.62046 26.9264 77.0596 C 0.0 **** 0.0
23961 O55 6.39196 26.788 68.7663 O 0.0 **** 0.0
23962 C56 6.82543 27.8265 60.7106 C 0.0 **** 0.0
23963 C57 6.07573 26.5162 60.6344 C 0.0 **** 0.0
23964 O58 6.97823 34.7003 63.2813 O 0.0 **** 0.0
23965 O59 1.5303 36.3627 68.6914 O 0.0 **** 0.0
23966 O60 4.39748 32.4996 60.0582 O 0.0 **** 0.0
23967 H61 6.90362 25.0388 73.4839 H 0.0 **** 0.0
23968 H62 3.89385 28.6107 75.1025 H 0.0 **** 0.0
23969 H63 5.18956 25.7257 70.9352 H 0.0 **** 0.0
23970 H64 6.8267 26.5712 71.1397 H 0.0 **** 0.0
23971 H65 2.44511 29.4111 73.7748 H 0.0 **** 0.0
23972 H66 3.6757 30.6347 74.0358 H 0.0 **** 0.0
23973 H67 1.04081 30.5774 72.3697 H 0.0 **** 0.0
23974 H68 1.41683 31.6004 73.7782 H 0.0 **** 0.0
23975 H69 1.37431 32.7409 71.4001 H 0.0 **** 0.0
23976 H70 2.82249 33.1366 72.4233 H 0.0 **** 0.0
23977 H71 5.9076 33.5707 68.7127 H 0.0 **** 0.0
23978 H72 3.12946 34.6061 70.3762 H 0.0 **** 0.0
23979 H73 3.91094 38.7979 64.9948 H 0.0 **** 0.0
23980 H74 3.62433 38.3409 63.2811 H 0.0 **** 0.0
23981 H75 1.40172 38.6831 64.3566 H 0.0 **** 0.0
23982 H76 1.62315 37.0437 63.9689 H 0.0 **** 0.0
23983 H77 1.84844 38.3372 66.6773 H 0.0 **** 0.0
23984 H78 0.710287 37.0528 66.1699 H 0.0 **** 0.0
23985 H79 6.31502 33.623 65.4384 H 0.0 **** 0.0
23986 H80 5.38414 36.7601 62.786 H 0.0 **** 0.0
23987 H81 7.16122 28.1046 65.9576 H 0.0 **** 0.0
23988 H82 5.49084 27.4027 65.7569 H 0.0 **** 0.0
23989 H83 3.56038 31.9895 66.1856 H 0.0 **** 0.0
23990 H84 6.78345 27.8756 63.4337 H 0.0 **** 0.0
23991 H85 5.50408 30.0328 60.0336 H 0.0 **** 0.0
23992 H86 3.19937 33.911 61.8459 H 0.0 **** 0.0
23993 H87 3.09956 33.5079 64.3284 H 0.0 **** 0.0
23994 H88 7.40794 24.6384 75.7203 H 0.0 **** 0.0
23995 H89 5.53626 27.1655 77.6483 H 0.0 **** 0.0
23996 H90 4.23819 25.9507 77.3861 H 0.0 **** 0.0
23997 H91 3.85042 27.713 77.2446 H 0.0 **** 0.0
23998 H92 6.9626 26.5555 67.973 H 0.0 **** 0.0
23999 H93 6.81272 28.1229 59.6638 H 0.0 **** 0.0
24000 H94 6.53878 25.7884 59.9458 H 0.0 **** 0.0
24001 H95 5.0686 26.5998 60.1951 H 0.0 **** 0.0
24002 H96 6.05052 26.0775 61.6462 H 0.0 **** 0.0
24003 H97 7.6329 34.1314 63.7697 H 0.0 **** 0.0
24004 H98 1.56208 36.1029 69.6615 H 0.0 **** 0.0
24005 H99 4.99823 32.0266 59.3792 H 0.0 **** 0.0
24006 H100 5.91176 32.6573 67.2319 H 0.0 **** 0.0
24007 H101 1.80854 33.8356 69.5397 H 0.0 **** 0.0
24008 H102 7.88818 27.6666 61.0171 H 0.0 **** 0.0
24009 C1 65.6913 66.653 83.3653 C 0.0 **** 0.0
24010 C2 66.8179 65.8103 83.1393 C 0.0 **** 0.0
24011 C3 67.065 65.2423 81.885 C 0.0 **** 0.0
24012 C4 66.2155 65.5029 80.8528 C 0.0 **** 0.0
24013 C5 65.2833 66.5462 80.9559 C 0.0 **** 0.0
24014 C6 65.0413 67.1639 82.2262 C 0.0 **** 0.0
24015 C7 66.7731 64.9272 79.6047 C 0.0 **** 0.0
24016 C8 67.9981 64.3675 79.9189 C 0.0 **** 0.0
24017 C9 68.3041 64.5829 81.3787 C 0.0 **** 0.0
24018 C10 68.7763 63.7253 78.9519 C 0.0 **** 0.0
24019 C11 68.2283 63.5352 77.6562 C 0.0 **** 0.0
24020 C12 66.8965 63.9879 77.3603 C 0.0 **** 0.0
24021 C13 66.138 64.693 78.3604 C 0.0 **** 0.0
24022 C14 64.6488 64.9717 78.156 C 0.0 **** 0.0
24023 C15 64.0452 64.1588 77.0031 C 0.0 **** 0.0
24024 C16 64.8683 64.2208 75.715 C 0.0 **** 0.0
24025 C17 66.3105 63.8094 76.0154 C 0.0 **** 0.0
24026 C18 67.1074 63.2747 74.989 C 0.0 **** 0.0
24027 C19 68.4759 62.9539 75.2842 C 0.0 **** 0.0
24028 C20 69.0218 62.9682 76.6126 C 0.0 **** 0.0
24029 C21 70.2716 62.4164 77.0119 C 0.0 **** 0.0
24030 C22 70.8193 62.6561 78.2739 C 0.0 **** 0.0
24031 C23 70.086 63.3307 79.2743 C 0.0 **** 0.0
24032 C24 69.3953 63.1062 74.0777 C 0.0 **** 0.0
24033 C25 68.8912 62.2593 72.9371 C 0.0 **** 0.0
24034 C26 67.5145 62.3367 72.6421 C 0.0 **** 0.0
24035 C27 66.5556 63.137 73.5749 C 0.0 **** 0.0
24036 C28 66.9838 61.7635 71.4459 C 0.0 **** 0.0
24037 C29 67.8506 61.0824 70.5426 C 0.0 **** 0.0
24038 C30 69.2135 60.9407 70.8742 C 0.0 **** 0.0
24039 C31 69.7274 61.5397 72.0489 C 0.0 **** 0.0
24040 C32 70.1847 60.4137 69.8558 C 0.0 **** 0.0
24041 C33 69.6282 59.9649 68.5145 C 0.0 **** 0.0
24042 C34 68.1838 59.4887 68.6134 C 0.0 **** 0.0
24043 C35 67.2821 60.537 69.2873 C 0.0 **** 0.0
24044 C36 71.1321 61.5361 72.2011 C 0.0 **** 0.0
24045 C37 72.0147 60.9287 71.3103 C 0.0 **** 0.0
24046 C38 71.548 60.3792 70.1232 C 0.0 **** 0.0
24047 C39 72.1616 61.926 78.4154 C 0.0 **** 0.0
24048 C40 72.2261 61.238 77.1232 C 0.0 **** 0.0
24049 C41 71.0597 61.4941 76.4155 C 0.0 **** 0.0
24050 C42 70.7122 60.6081 75.3502 C 0.0 **** 0.0
24051 C43 71.6894 59.7236 74.8668 C 0.0 **** 0.0
24052 C44 72.9133 59.6309 75.5042 C 0.0 **** 0.0
24053 C45 73.2251 60.3754 76.6829 C 0.0 **** 0.0
24054 C46 74.3654 60.1637 77.3908 C 0.0 **** 0.0
24055 C47 75.279 59.2664 76.9318 C 0.0 **** 0.0
24056 C48 75.117 58.5966 75.7285 C 0.0 **** 0.0
24057 C49 73.9407 58.7598 74.9657 C 0.0 **** 0.0
24058 C50 73.7211 58.1556 73.668 C 0.0 **** 0.0
24059 C51 72.4435 58.1821 73.0974 C 0.0 **** 0.0
24060 C52 71.3964 58.859 73.7416 C 0.0 **** 0.0
24061 O53 65.3677 67.1624 84.6049 O 0.0 **** 0.0
24062 C54 64.124 68.3544 82.3714 C 0.0 **** 0.0
24063 O55 70.6809 63.5557 80.5335 O 0.0 **** 0.0
24064 C56 76.3348 58.8187 77.8998 C 0.0 **** 0.0
24065 C57 77.414 59.9315 78.0677 C 0.0 **** 0.0
24066 O58 73.4082 61.0474 71.497 O 0.0 **** 0.0
24067 O59 65.6404 61.895 71.1245 O 0.0 **** 0.0
24068 O60 74.8013 57.6157 72.962 O 0.0 **** 0.0
24069 H61 67.5535 65.6382 83.8905 H 0.0 **** 0.0
24070 H62 64.7974 66.8799 80.073 H 0.0 **** 0.0
24071 H63 68.3928 63.6114 81.8924 H 0.0 **** 0.0
24072 H64 69.1498 65.2677 81.5213 H 0.0 **** 0.0
24073 H65 64.1172 64.6826 79.0803 H 0.0 **** 0.0
24074 H66 64.5322 66.0721 77.9837 H 0.0 **** 0.0
24075 H67 64.0324 63.1173 77.2735 H 0.0 **** 0.0
24076 H68 63.018 64.4764 76.7712 H 0.0 **** 0.0
24077 H69 64.3574 63.5311 75.0111 H 0.0 **** 0.0
24078 H70 64.8964 65.2712 75.2989 H 0.0 **** 0.0
24079 H71 69.2583 64.1331 73.6428 H 0.0 **** 0.0
24080 H72 66.2786 64.0962 73.1331 H 0.0 **** 0.0
24081 H73 69.6745 60.8571 67.8736 H 0.0 **** 0.0
24082 H74 70.1781 59.1196 68.1316 H 0.0 **** 0.0
24083 H75 67.8073 59.3511 67.5616 H 0.0 **** 0.0
24084 H76 68.1296 58.5596 69.2423 H 0.0 **** 0.0
24085 H77 67.0869 61.3524 68.5616 H 0.0 **** 0.0
24086 H78 66.3429 60.0603 69.5275 H 0.0 **** 0.0
24087 H79 71.6228 62.0989 72.9772 H 0.0 **** 0.0
24088 H80 72.2578 60.1328 69.349 H 0.0 **** 0.0
24089 H81 73.0098 62.6504 78.48 H 0.0 **** 0.0
24090 H82 72.1167 61.2095 79.2503 H 0.0 **** 0.0
24091 H83 69.7216 60.5454 74.9412 H 0.0 **** 0.0
24092 H84 74.4397 60.6006 78.3771 H 0.0 **** 0.0
24093 H85 75.8613 57.921 75.3476 H 0.0 **** 0.0
24094 H86 72.2583 57.7818 72.1216 H 0.0 **** 0.0
24095 H87 70.4285 58.8688 73.2903 H 0.0 **** 0.0
24096 H88 65.8459 66.6077 85.3493 H 0.0 **** 0.0
24097 H89 63.3958 68.2096 83.2224 H 0.0 **** 0.0
24098 H90 63.6835 68.6332 81.4005 H 0.0 **** 0.0
24099 H91 64.7678 69.2282 82.6157 H 0.0 **** 0.0
24100 H92 71.5018 63.0163 80.6989 H 0.0 **** 0.0
24101 H93 75.8363 58.5626 78.8437 H 0.0 **** 0.0
24102 H94 78.3984 59.5261 78.3878 H 0.0 **** 0.0
24103 H95 77.1183 60.6646 78.8109 H 0.0 **** 0.0
24104 H96 77.5542 60.5181 77.1556 H 0.0 **** 0.0
24105 H97 73.6267 61.4754 72.3904 H 0.0 **** 0.0
24106 H98 65.1795 62.7188 71.5238 H 0.0 **** 0.0
24107 H99 75.7262 57.9909 73.2235 H 0.0 **** 0.0
24108 H100 70.4275 62.9654 74.3512 H 0.0 **** 0.0
24109 H101 65.649 62.5102 73.6992 H 0.0 **** 0.0
24110 H102 76.825 57.8836 77.5049 H 0.0 **** 0.0
24111 C1 59.5311 108.107 7.75046 C 0.0 **** 0.0
24112 C2 59.484 106.751 8.13823 C 0.0 **** 0.0
24113 C3 58.2544 106.132 8.19894 C 0.0 **** 0.0
24114 C4 57.0681 106.819 7.95354 C 0.0 **** 0.0
24115 C5 57.1131 108.157 7.53129 C 0.0 **** 0.0
24116 C6 58.3271 108.791 7.39008 C 0.0 **** 0.0
24117 C7 55.9799 105.903 8.13776 C 0.0 **** 0.0
24118 C8 56.5284 104.623 8.29616 C 0.0 **** 0.0
24119 C9 58.0468 104.672 8.30257 C 0.0 **** 0.0
24120 C10 55.7382 103.526 8.63971 C 0.0 **** 0.0
24121 C11 54.3663 103.745 8.94776 C 0.0 **** 0.0
24122 C12 53.7971 105.048 8.736 C 0.0 **** 0.0
24123 C13 54.617 106.153 8.39094 C 0.0 **** 0.0
24124 C14 54.0109 107.544 8.407 C 0.0 **** 0.0
24125 C15 52.8476 107.659 9.36222 C 0.0 **** 0.0
24126 C16 51.7671 106.668 8.9283 C 0.0 **** 0.0
24127 C17 52.3583 105.268 8.97541 C 0.0 **** 0.0
24128 C18 51.5734 104.135 9.19321 C 0.0 **** 0.0
24129 C19 52.1215 102.845 9.15393 C 0.0 **** 0.0
24130 C20 53.5049 102.635 9.25303 C 0.0 **** 0.0
24131 C21 54.1462 101.361 9.52299 C 0.0 **** 0.0
24132 C22 55.4992 101.187 9.30048 C 0.0 **** 0.0
24133 C23 56.2716 102.23 8.77476 C 0.0 **** 0.0
24134 C24 51.1187 101.791 8.70343 C 0.0 **** 0.0
24135 C25 49.9041 101.829 9.60701 C 0.0 **** 0.0
24136 C26 49.4983 103.109 10.1604 C 0.0 **** 0.0
24137 C27 50.1861 104.374 9.70628 C 0.0 **** 0.0
24138 C28 48.5238 103.193 11.1823 C 0.0 **** 0.0
24139 C29 47.9395 102.041 11.6689 C 0.0 **** 0.0
24140 C30 48.2289 100.788 11.0455 C 0.0 **** 0.0
24141 C31 49.1649 100.668 9.95206 C 0.0 **** 0.0
24142 C32 47.4244 99.6072 11.4331 C 0.0 **** 0.0
24143 C33 46.199 99.7376 12.323 C 0.0 **** 0.0
24144 C34 46.5854 100.768 13.4287 C 0.0 **** 0.0
24145 C35 47.0355 102.132 12.8684 C 0.0 **** 0.0
24146 C36 49.3507 99.42 9.36199 C 0.0 **** 0.0
24147 C37 48.6486 98.2914 9.78102 C 0.0 **** 0.0
24148 C38 47.6598 98.4107 10.7595 C 0.0 **** 0.0
24149 C39 55.9535 99.7971 9.43616 C 0.0 **** 0.0
24150 C40 54.7067 99.183 9.90251 C 0.0 **** 0.0
24151 C41 53.6941 100.115 10.0479 C 0.0 **** 0.0
24152 C42 52.5077 99.8043 10.7147 C 0.0 **** 0.0
24153 C43 52.3484 98.4851 11.2165 C 0.0 **** 0.0
24154 C44 53.3747 97.5399 11.0326 C 0.0 **** 0.0
24155 C45 54.5525 97.9009 10.3408 C 0.0 **** 0.0
24156 C46 55.5798 96.9355 10.1168 C 0.0 **** 0.0
24157 C47 55.4251 95.6288 10.6011 C 0.0 **** 0.0
24158 C48 54.3109 95.2917 11.3635 C 0.0 **** 0.0
24159 C49 53.2593 96.2284 11.5747 C 0.0 **** 0.0
24160 C50 52.0575 95.9078 12.2914 C 0.0 **** 0.0
24161 C51 51.0636 96.8767 12.4591 C 0.0 **** 0.0
24162 C52 51.2159 98.1616 11.9699 C 0.0 **** 0.0
24163 O53 60.7377 108.763 7.73194 O 0.0 **** 0.0
24164 C54 58.3443 110.245 6.95712 C 0.0 **** 0.0
24165 O55 57.5438 101.977 8.2558 O 0.0 **** 0.0
24166 C56 56.4395 94.5624 10.3005 C 0.0 **** 0.0
24167 C57 56.1569 93.9576 8.92634 C 0.0 **** 0.0
24168 O58 48.8406 97.0303 9.19391 O 0.0 **** 0.0
24169 O59 48.2984 104.387 11.8679 O 0.0 **** 0.0
24170 O60 51.7712 94.6637 12.8073 O 0.0 **** 0.0
24171 H61 60.4036 106.21 8.32986 H 0.0 **** 0.0
24172 H62 56.2111 108.646 7.19314 H 0.0 **** 0.0
24173 H63 58.5601 104.237 9.18357 H 0.0 **** 0.0
24174 H64 58.4815 104.141 7.42399 H 0.0 **** 0.0
24175 H65 54.69 108.366 8.67076 H 0.0 **** 0.0
24176 H66 53.6445 107.8 7.38282 H 0.0 **** 0.0
24177 H67 53.1835 107.54 10.4058 H 0.0 **** 0.0
24178 H68 52.4168 108.721 9.31876 H 0.0 **** 0.0
24179 H69 50.945 106.804 9.61273 H 0.0 **** 0.0
24180 H70 51.5074 106.902 7.86495 H 0.0 **** 0.0
24181 H71 50.8358 102.031 7.67471 H 0.0 **** 0.0
24182 H72 49.6296 104.817 8.90375 H 0.0 **** 0.0
24183 H73 45.3641 100.134 11.6814 H 0.0 **** 0.0
24184 H74 46.0247 98.7822 12.8631 H 0.0 **** 0.0
24185 H75 45.6845 100.904 14.0848 H 0.0 **** 0.0
24186 H76 47.4017 100.368 14.0629 H 0.0 **** 0.0
24187 H77 46.1456 102.713 12.5308 H 0.0 **** 0.0
24188 H78 47.5539 102.658 13.6863 H 0.0 **** 0.0
24189 H79 50.0201 99.3211 8.53402 H 0.0 **** 0.0
24190 H80 47.0112 97.5073 10.8699 H 0.0 **** 0.0
24191 H81 56.2328 99.3817 8.44387 H 0.0 **** 0.0
24192 H82 56.7359 99.7145 10.2396 H 0.0 **** 0.0
24193 H83 51.7985 100.558 10.9312 H 0.0 **** 0.0
24194 H84 56.4505 97.2097 9.5431 H 0.0 **** 0.0
24195 H85 54.2305 94.334 11.7688 H 0.0 **** 0.0
24196 H86 50.147 96.6681 13.0617 H 0.0 **** 0.0
24197 H87 50.3987 98.8847 12.0298 H 0.0 **** 0.0
24198 H88 61.4903 108.175 8.03175 H 0.0 **** 0.0
24199 H89 59.3359 110.733 7.10274 H 0.0 **** 0.0
24200 H90 57.5336 110.77 7.56483 H 0.0 **** 0.0
24201 H91 58.1071 110.304 5.86472 H 0.0 **** 0.0
24202 H92 57.9272 101.039 8.38153 H 0.0 **** 0.0
24203 H93 57.5021 94.9988 10.2763 H 0.0 **** 0.0
24204 H94 57.0337 93.3288 8.60919 H 0.0 **** 0.0
24205 H95 56.0661 94.749 8.15942 H 0.0 **** 0.0
24206 H96 55.3219 93.2318 8.93834 H 0.0 **** 0.0
24207 H97 49.7026 97.0342 8.66849 H 0.0 **** 0.0
24208 H98 48.1064 105.162 11.2874 H 0.0 **** 0.0
24209 H99 52.317 93.8589 12.4928 H 0.0 **** 0.0
24210 H100 51.5549 100.797 8.63921 H 0.0 **** 0.0
24211 H101 50.3712 104.998 10.6267 H 0.0 **** 0.0
24212 H102 56.4225 93.7421 11.0309 H 0.0 **** 0.0
24213 C1 64.3832 76.4664 59.8833 C 0.0 **** 0.0
24214 C2 65.4915 76.36 58.9787 C 0.0 **** 0.0
24215 C3 66.1922 75.1495 58.9653 C 0.0 **** 0.0
24216 C4 65.9647 74.1403 59.8487 C 0.0 **** 0.0
24217 C5 64.8502 74.2062 60.686 C 0.0 **** 0.0
24218 C6 64.0354 75.3568 60.6925 C 0.0 **** 0.0
24219 C7 66.9244 73.0398 59.563 C 0.0 **** 0.0
24220 C8 67.7146 73.4269 58.5352 C 0.0 **** 0.0
24221 C9 67.3688 74.8482 58.1434 C 0.0 **** 0.0
24222 C10 68.6687 72.575 57.9642 C 0.0 **** 0.0
24223 C11 68.6876 71.1849 58.3873 C 0.0 **** 0.0
24224 C12 67.8347 70.7776 59.4357 C 0.0 **** 0.0
24225 C13 66.9938 71.7255 60.0386 C 0.0 **** 0.0
24226 C14 66.0763 71.3191 61.2275 C 0.0 **** 0.0
24227 C15 66.5185 70.0113 61.8691 C 0.0 **** 0.0
24228 C16 66.7318 68.9151 60.8268 C 0.0 **** 0.0
24229 C17 67.7623 69.3193 59.7593 C 0.0 **** 0.0
24230 C18 68.4482 68.3927 59.0002 C 0.0 **** 0.0
24231 C19 69.2892 68.8836 57.9651 C 0.0 **** 0.0
24232 C20 69.5768 70.2744 57.8106 C 0.0 **** 0.0
24233 C21 70.6984 70.8238 57.0948 C 0.0 **** 0.0
24234 C22 70.6299 72.111 56.627 C 0.0 **** 0.0
24235 C23 69.5208 72.9572 56.9429 C 0.0 **** 0.0
24236 C24 69.6041 67.9286 56.8731 C 0.0 **** 0.0
24237 C25 70.092 66.5931 57.4034 C 0.0 **** 0.0
24238 C26 69.4491 66.0715 58.5871 C 0.0 **** 0.0
24239 C27 68.3666 66.8459 59.2516 C 0.0 **** 0.0
24240 C28 69.7941 64.7609 58.969 C 0.0 **** 0.0
24241 C29 70.8813 64.114 58.3742 C 0.0 **** 0.0
24242 C30 71.6757 64.7313 57.3445 C 0.0 **** 0.0
24243 C31 71.1939 65.9189 56.7764 C 0.0 **** 0.0
24244 C32 72.9167 64.0749 56.8209 C 0.0 **** 0.0
24245 C33 73.528 62.8836 57.5527 C 0.0 **** 0.0
24246 C34 72.9242 62.7188 59.0102 C 0.0 **** 0.0
24247 C35 71.405 62.8476 59.0064 C 0.0 **** 0.0
24248 C36 71.764 66.3295 55.5183 C 0.0 **** 0.0
24249 C37 72.914 65.7003 55.0231 C 0.0 **** 0.0
24250 C38 73.5101 64.6513 55.6958 C 0.0 **** 0.0
24251 C39 71.8246 72.4578 55.7802 C 0.0 **** 0.0
24252 C40 72.6715 71.2147 56.0149 C 0.0 **** 0.0
24253 C41 72.0074 70.3498 56.8409 C 0.0 **** 0.0
24254 C42 72.5932 69.2139 57.3898 C 0.0 **** 0.0
24255 C43 73.9256 68.9004 56.9726 C 0.0 **** 0.0
24256 C44 74.641 69.7243 56.0679 C 0.0 **** 0.0
24257 C45 73.9634 70.8404 55.4982 C 0.0 **** 0.0
24258 C46 74.6355 71.5348 54.4737 C 0.0 **** 0.0
24259 C47 75.9213 71.2397 54.0564 C 0.0 **** 0.0
24260 C48 76.5984 70.2021 54.6622 C 0.0 **** 0.0
24261 C49 75.9564 69.4279 55.6619 C 0.0 **** 0.0
24262 C50 76.5763 68.3237 56.3138 C 0.0 **** 0.0
24263 C51 75.8394 67.4826 57.1382 C 0.0 **** 0.0
24264 C52 74.5388 67.776 57.4735 C 0.0 **** 0.0
24265 O53 63.6593 77.6578 60.0126 O 0.0 **** 0.0
24266 C54 62.8561 75.3822 61.627 C 0.0 **** 0.0
24267 O55 69.3342 74.2156 56.3125 O 0.0 **** 0.0
24268 C56 76.5594 71.9404 52.853 C 0.0 **** 0.0
24269 C57 77.1973 73.2862 53.1896 C 0.0 **** 0.0
24270 O58 73.4774 66.0305 53.7757 O 0.0 **** 0.0
24271 O59 69.0205 64.0227 59.8807 O 0.0 **** 0.0
24272 O60 77.883 67.9978 56.2226 O 0.0 **** 0.0
24273 H61 65.7605 77.151 58.2294 H 0.0 **** 0.0
24274 H62 64.5719 73.3764 61.3018 H 0.0 **** 0.0
24275 H63 68.1763 75.5388 58.4273 H 0.0 **** 0.0
24276 H64 67.0749 74.8746 56.9905 H 0.0 **** 0.0
24277 H65 66.1499 72.161 61.9899 H 0.0 **** 0.0
24278 H66 64.9866 71.2324 60.9073 H 0.0 **** 0.0
24279 H67 67.4873 70.1689 62.4041 H 0.0 **** 0.0
24280 H68 65.7746 69.694 62.6069 H 0.0 **** 0.0
24281 H69 66.9588 67.9935 61.3727 H 0.0 **** 0.0
24282 H70 65.7854 68.6799 60.3239 H 0.0 **** 0.0
24283 H71 68.644 67.7316 56.3948 H 0.0 **** 0.0
24284 H72 67.3559 66.4831 58.9872 H 0.0 **** 0.0
24285 H73 73.3478 61.8829 57.0349 H 0.0 **** 0.0
24286 H74 74.6649 63.0323 57.5524 H 0.0 **** 0.0
24287 H75 73.1879 61.7213 59.4704 H 0.0 **** 0.0
24288 H76 73.4075 63.5015 59.6812 H 0.0 **** 0.0
24289 H77 70.8697 62.0205 58.463 H 0.0 **** 0.0
24290 H78 71.0706 62.8009 60.0653 H 0.0 **** 0.0
24291 H79 71.3037 67.0616 54.9025 H 0.0 **** 0.0
24292 H80 74.3686 64.1401 55.3129 H 0.0 **** 0.0
24293 H81 71.4632 72.5596 54.6991 H 0.0 **** 0.0
24294 H82 72.4412 73.3174 56.1597 H 0.0 **** 0.0
24295 H83 72.0642 68.611 58.1392 H 0.0 **** 0.0
24296 H84 74.083 72.3483 53.9725 H 0.0 **** 0.0
24297 H85 77.6493 70.0755 54.4651 H 0.0 **** 0.0
24298 H86 76.301 66.6456 57.5962 H 0.0 **** 0.0
24299 H87 74.0277 67.1298 58.1532 H 0.0 **** 0.0
24300 H88 63.8772 78.3515 59.3242 H 0.0 **** 0.0
24301 H89 63.0269 74.8707 62.5748 H 0.0 **** 0.0
24302 H90 61.9913 75.0024 61.0402 H 0.0 **** 0.0
24303 H91 62.601 76.4043 61.9419 H 0.0 **** 0.0
24304 H92 69.9074 74.3721 55.4874 H 0.0 **** 0.0
24305 H93 77.3548 71.2968 52.3583 H 0.0 **** 0.0
24306 H94 77.827 73.5996 52.3126 H 0.0 **** 0.0
24307 H95 77.8596 73.1875 54.1189 H 0.0 **** 0.0
24308 H96 76.4766 74.0315 53.388 H 0.0 **** 0.0
24309 H97 73.0469 66.8404 53.3374 H 0.0 **** 0.0
24310 H98 68.2521 64.4866 60.3281 H 0.0 **** 0.0
24311 H99 78.5185 68.6212 55.6994 H 0.0 **** 0.0
24312 H100 70.1908 68.4378 56.092 H 0.0 **** 0.0
24313 H101 68.4955 66.663 60.3516 H 0.0 **** 0.0
24314 H102 75.7943 72.054 52.0583 H 0.0 **** 0.0
24315 C1 75.3073 69.3303 76.2598 C 0.0 **** 0.0
24316 C2 75.8635 68.9377 75.043 C 0.0 **** 0.0
24317 C3 75.4419 69.6109 73.868 C 0.0 **** 0.0
24318 C4 74.5759 70.6547 73.9124 C 0.0 **** 0.0
24319 C5 74.0684 71.0994 75.126 C 0.0 **** 0.0
24320 C6 74.451 70.4492 76.3005 C 0.0 **** 0.0
24321 C7 74.3021 71.0584 72.5154 C 0.0 **** 0.0
24322 C8 75.121 70.2372 71.69 C 0.0 **** 0.0
24323 C9 75.9632 69.2952 72.509 C 0.0 **** 0.0
24324 C10 74.9809 70.2312 70.2638 C 0.0 **** 0.0
24325 C11 74.0264 71.1046 69.6822 C 0.0 **** 0.0
24326 C12 73.2318 71.9187 70.4901 C 0.0 **** 0.0
24327 C13 73.3015 71.8309 71.8997 C 0.0 **** 0.0
24328 C14 72.3795 72.6919 72.7607 C 0.0 **** 0.0
24329 C15 71.1805 73.2483 72.0176 C 0.0 **** 0.0
24330 C16 71.6795 73.9694 70.7245 C 0.0 **** 0.0
24331 C17 72.3369 72.9294 69.8368 C 0.0 **** 0.0
24332 C18 72.2808 72.9903 68.4544 C 0.0 **** 0.0
24333 C19 73.1039 72.2135 67.6689 C 0.0 **** 0.0
24334 C20 73.7619 71.1181 68.284 C 0.0 **** 0.0
24335 C21 74.247 70.0358 67.5677 C 0.0 **** 0.0
24336 C22 75.2653 69.2567 68.0643 C 0.0 **** 0.0
24337 C23 75.7107 69.3936 69.4031 C 0.0 **** 0.0
24338 C24 73.5667 72.7684 66.2996 C 0.0 **** 0.0
24339 C25 72.5125 73.5917 65.5523 C 0.0 **** 0.0
24340 C26 71.357 73.9638 66.2864 C 0.0 **** 0.0
24341 C27 71.3056 73.8897 67.7993 C 0.0 **** 0.0
24342 C28 70.1921 74.4125 65.5446 C 0.0 **** 0.0
24343 C29 70.2198 74.5752 64.1575 C 0.0 **** 0.0
24344 C30 71.4258 74.3505 63.4716 C 0.0 **** 0.0
24345 C31 72.5983 73.8821 64.16 C 0.0 **** 0.0
24346 C32 71.5076 74.6516 62.0261 C 0.0 **** 0.0
24347 C33 70.246 75.0545 61.2748 C 0.0 **** 0.0
24348 C34 68.9977 74.5132 61.9619 C 0.0 **** 0.0
24349 C35 69.0049 75.0596 63.426 C 0.0 **** 0.0
24350 C36 73.8536 73.8449 63.4916 C 0.0 **** 0.0
24351 C37 73.9489 74.246 62.134 C 0.0 **** 0.0
24352 C38 72.7767 74.6111 61.4203 C 0.0 **** 0.0
24353 C39 75.6844 68.223 67.059 C 0.0 **** 0.0
24354 C40 74.6176 68.484 66.0108 C 0.0 **** 0.0
24355 C41 73.7821 69.5011 66.3911 C 0.0 **** 0.0
24356 C42 72.557 69.7211 65.7292 C 0.0 **** 0.0
24357 C43 72.2028 68.9228 64.6254 C 0.0 **** 0.0
24358 C44 73.1087 67.8958 64.1738 C 0.0 **** 0.0
24359 C45 74.2942 67.6155 64.9508 C 0.0 **** 0.0
24360 C46 75.0686 66.5003 64.6438 C 0.0 **** 0.0
24361 C47 74.6649 65.5614 63.6972 C 0.0 **** 0.0
24362 C48 73.5619 65.8633 62.8914 C 0.0 **** 0.0
24363 C49 72.803 67.0492 63.0477 C 0.0 **** 0.0
24364 C50 71.5799 67.3105 62.3335 C 0.0 **** 0.0
24365 C51 70.7086 68.2867 62.8026 C 0.0 **** 0.0
24366 C52 71.0191 69.0897 63.9317 C 0.0 **** 0.0
24367 O53 75.6444 68.5984 77.4049 O 0.0 **** 0.0
24368 C54 73.7542 70.7512 77.6304 C 0.0 **** 0.0
24369 O55 76.7113 68.5915 69.9532 O 0.0 **** 0.0
24370 C56 75.4268 64.2987 63.526 C 0.0 **** 0.0
24371 C57 74.5893 63.1043 63.9046 C 0.0 **** 0.0
24372 O58 75.1641 74.165 61.441 O 0.0 **** 0.0
24373 O59 69.013 74.7343 66.2019 O 0.0 **** 0.0
24374 O60 71.1688 66.5272 61.2417 O 0.0 **** 0.0
24375 H61 76.5574 68.1306 74.9504 H 0.0 **** 0.0
24376 H62 73.4903 71.9745 75.2655 H 0.0 **** 0.0
24377 H63 75.8531 68.2149 72.1979 H 0.0 **** 0.0
24378 H64 77.0601 69.5739 72.4771 H 0.0 **** 0.0
24379 H65 72.0772 72.0373 73.6064 H 0.0 **** 0.0
24380 H66 72.992 73.5192 73.1185 H 0.0 **** 0.0
24381 H67 70.494 72.3974 71.8023 H 0.0 **** 0.0
24382 H68 70.696 73.9971 72.6657 H 0.0 **** 0.0
24383 H69 70.8174 74.4758 70.2744 H 0.0 **** 0.0
24384 H70 72.4071 74.7898 71.0278 H 0.0 **** 0.0
24385 H71 74.3991 73.4546 66.4929 H 0.0 **** 0.0
24386 H72 71.421 74.8971 68.1643 H 0.0 **** 0.0
24387 H73 70.2339 76.1755 61.2536 H 0.0 **** 0.0
24388 H74 70.2867 74.7484 60.187 H 0.0 **** 0.0
24389 H75 68.0618 74.8448 61.4821 H 0.0 **** 0.0
24390 H76 69.0595 73.4129 61.8928 H 0.0 **** 0.0
24391 H77 68.93 76.1905 63.3715 H 0.0 **** 0.0
24392 H78 68.0816 74.6113 63.9521 H 0.0 **** 0.0
24393 H79 74.697 73.5407 64.047 H 0.0 **** 0.0
24394 H80 72.9204 74.9472 60.3944 H 0.0 **** 0.0
24395 H81 76.7214 68.4778 66.675 H 0.0 **** 0.0
24396 H82 75.5502 67.1863 67.4801 H 0.0 **** 0.0
24397 H83 71.8817 70.4831 66.0855 H 0.0 **** 0.0
24398 H84 75.99 66.3028 65.2653 H 0.0 **** 0.0
24399 H85 73.3623 65.2219 62.044 H 0.0 **** 0.0
24400 H86 69.7587 68.4093 62.347 H 0.0 **** 0.0
24401 H87 70.34 69.8742 64.2464 H 0.0 **** 0.0
24402 H88 76.2806 67.8423 77.2712 H 0.0 **** 0.0
24403 H89 73.0948 69.9007 77.8518 H 0.0 **** 0.0
24404 H90 73.1348 71.6828 77.5761 H 0.0 **** 0.0
24405 H91 74.4623 70.7983 78.4868 H 0.0 **** 0.0
24406 H92 77.1537 67.9855 69.2588 H 0.0 **** 0.0
24407 H93 75.6923 64.2579 62.429 H 0.0 **** 0.0
24408 H94 73.8394 62.8405 63.1341 H 0.0 **** 0.0
24409 H95 74.1138 63.2203 64.8972 H 0.0 **** 0.0
24410 H96 75.2048 62.2142 63.9886 H 0.0 **** 0.0
24411 H97 75.9678 73.8984 62.0421 H 0.0 **** 0.0
24412 H98 69.2474 75.0805 67.1471 H 0.0 **** 0.0
24413 H99 71.8642 65.9657 60.8388 H 0.0 **** 0.0
24414 H100 73.9325 71.9728 65.6115 H 0.0 **** 0.0
24415 H101 70.3273 73.4631 68.0997 H 0.0 **** 0.0
24416 H102 76.378 64.3354 64.0981 H 0.0 **** 0.0
24417 C1 88.983 12.8357 92.0736 C 0.0 **** 0.0
24418 C2 89.8675 11.7785 92.2515 C 0.0 **** 0.0
24419 C3 89.4266 10.4382 92.2321 C 0.0 **** 0.0
24420 C4 88.0894 10.1898 92.1668 C 0.0 **** 0.0
24421 C5 87.183 11.2386 91.8001 C 0.0 **** 0.0
24422 C6 87.6549 12.5822 91.812 C 0.0 **** 0.0
24423 C7 87.9416 8.75748 92.3656 C 0.0 **** 0.0
24424 C8 89.2191 8.15235 92.371 C 0.0 **** 0.0
24425 C9 90.277 9.19629 92.2063 C 0.0 **** 0.0
24426 C10 89.3746 6.76909 92.6551 C 0.0 **** 0.0
24427 C11 88.238 6.06777 93.13 C 0.0 **** 0.0
24428 C12 86.9721 6.6723 93.2052 C 0.0 **** 0.0
24429 C13 86.8163 8.02558 92.8335 C 0.0 **** 0.0
24430 C14 85.4718 8.68029 93.0435 C 0.0 **** 0.0
24431 C15 84.6609 8.05204 94.1757 C 0.0 **** 0.0
24432 C16 84.4713 6.56517 93.917 C 0.0 **** 0.0
24433 C17 85.7876 5.86834 93.6284 C 0.0 **** 0.0
24434 C18 85.9081 4.46228 93.6701 C 0.0 **** 0.0
24435 C19 87.177 3.86176 93.7336 C 0.0 **** 0.0
24436 C20 88.3343 4.7011 93.583 C 0.0 **** 0.0
24437 C21 89.6338 4.27764 93.8281 C 0.0 **** 0.0
24438 C22 90.7127 4.81715 93.2233 C 0.0 **** 0.0
24439 C23 90.6088 6.08806 92.5917 C 0.0 **** 0.0
24440 C24 87.2492 2.38472 93.7361 C 0.0 **** 0.0
24441 C25 86.1187 1.67441 93.0124 C 0.0 **** 0.0
24442 C26 84.8827 2.29744 92.8948 C 0.0 **** 0.0
24443 C27 84.6285 3.62638 93.5772 C 0.0 **** 0.0
24444 C28 83.8268 1.59747 92.2115 C 0.0 **** 0.0
24445 C29 84.0668 0.318345 91.6487 C 0.0 **** 0.0
24446 C30 85.3288 -0.288258 91.8024 C 0.0 **** 0.0
24447 C31 86.3825 0.375049 92.4809 C 0.0 **** 0.0
24448 C32 85.5924 -1.71241 91.3047 C 0.0 **** 0.0
24449 C33 84.4705 -2.42364 90.6149 C 0.0 **** 0.0
24450 C34 83.087 -1.94377 91.0462 C 0.0 **** 0.0
24451 C35 82.9916 -0.475568 90.903 C 0.0 **** 0.0
24452 C36 87.58 -0.355461 92.7412 C 0.0 **** 0.0
24453 C37 87.8394 -1.62813 92.2037 C 0.0 **** 0.0
24454 C38 86.8964 -2.23947 91.3899 C 0.0 **** 0.0
24455 C39 91.9441 4.0247 93.5167 C 0.0 **** 0.0
24456 C40 91.3937 3.05992 94.4979 C 0.0 **** 0.0
24457 C41 90.0623 3.35615 94.7236 C 0.0 **** 0.0
24458 C42 89.3484 2.82759 95.8129 C 0.0 **** 0.0
24459 C43 89.824 1.62288 96.3662 C 0.0 **** 0.0
24460 C44 91.1104 1.12956 95.9721 C 0.0 **** 0.0
24461 C45 91.9262 1.90146 95.0848 C 0.0 **** 0.0
24462 C46 93.1308 1.32375 94.649 C 0.0 **** 0.0
24463 C47 93.5557 0.050936 95.0715 C 0.0 **** 0.0
24464 C48 92.6882 -0.677631 95.8902 C 0.0 **** 0.0
24465 C49 91.4968 -0.170076 96.4172 C 0.0 **** 0.0
24466 C50 90.5606 -0.928262 97.2108 C 0.0 **** 0.0
24467 C51 89.3843 -0.364144 97.6536 C 0.0 **** 0.0
24468 C52 88.9857 0.889447 97.2668 C 0.0 **** 0.0
24469 O53 89.4482 14.1303 92.1903 O 0.0 **** 0.0
24470 C54 86.6586 13.655 91.5691 C 0.0 **** 0.0
24471 O55 91.7678 6.62813 91.9601 O 0.0 **** 0.0
24472 C56 94.9056 -0.450462 94.7483 C 0.0 **** 0.0
24473 C57 96.0026 0.484498 95.1751 C 0.0 **** 0.0
24474 O58 89.0582 -2.23915 92.44 O 0.0 **** 0.0
24475 O59 82.5453 2.09336 92.072 O 0.0 **** 0.0
24476 O60 90.8797 -2.22916 97.6452 O 0.0 **** 0.0
24477 H61 90.9253 11.9484 92.2954 H 0.0 **** 0.0
24478 H62 86.1432 11.0403 91.5765 H 0.0 **** 0.0
24479 H63 90.9441 9.06157 93.07 H 0.0 **** 0.0
24480 H64 90.8412 9.10264 91.2859 H 0.0 **** 0.0
24481 H65 85.5946 9.73992 93.3196 H 0.0 **** 0.0
24482 H66 84.9062 8.64909 92.0909 H 0.0 **** 0.0
24483 H67 85.1863 8.09265 95.1469 H 0.0 **** 0.0
24484 H68 83.6499 8.55158 94.2713 H 0.0 **** 0.0
24485 H69 83.913 6.14106 94.8001 H 0.0 **** 0.0
24486 H70 83.8613 6.45455 92.9765 H 0.0 **** 0.0
24487 H71 88.162 2.09609 93.255 H 0.0 **** 0.0
24488 H72 84.0534 4.15623 92.8608 H 0.0 **** 0.0
24489 H73 84.6153 -2.21683 89.5509 H 0.0 **** 0.0
24490 H74 84.5576 -3.49617 90.747 H 0.0 **** 0.0
24491 H75 82.3369 -2.42925 90.4079 H 0.0 **** 0.0
24492 H76 82.7953 -2.26672 92.0574 H 0.0 **** 0.0
24493 H77 83.0881 -0.283486 89.807 H 0.0 **** 0.0
24494 H78 82.0156 -0.101365 91.0813 H 0.0 **** 0.0
24495 H79 88.3716 0.00875217 93.4229 H 0.0 **** 0.0
24496 H80 87.0707 -3.21634 91.0145 H 0.0 **** 0.0
24497 H81 92.3029 3.51117 92.6038 H 0.0 **** 0.0
24498 H82 92.7276 4.65675 94.0078 H 0.0 **** 0.0
24499 H83 88.4286 3.27131 96.1523 H 0.0 **** 0.0
24500 H84 93.752 1.92856 93.971 H 0.0 **** 0.0
24501 H85 92.9559 -1.69624 96.1371 H 0.0 **** 0.0
24502 H86 88.6658 -0.915843 98.2065 H 0.0 **** 0.0
24503 H87 88.0188 1.30598 97.5894 H 0.0 **** 0.0
24504 H88 90.4533 14.228 92.4515 H 0.0 **** 0.0
24505 H89 86.2784 13.526 90.5027 H 0.0 **** 0.0
24506 H90 87.0917 14.6471 91.6719 H 0.0 **** 0.0
24507 H91 85.7847 13.468 92.2118 H 0.0 **** 0.0
24508 H92 92.6134 6.04707 92.0247 H 0.0 **** 0.0
24509 H93 95.0919 -1.44779 95.1935 H 0.0 **** 0.0
24510 H94 95.7856 1.48158 94.7407 H 0.0 **** 0.0
24511 H95 96.9443 0.139216 94.7915 H 0.0 **** 0.0
24512 H96 96.0177 0.572704 96.2883 H 0.0 **** 0.0
24513 H97 89.7797 -1.59092 92.7453 H 0.0 **** 0.0
24514 H98 82.2329 2.64368 92.8357 H 0.0 **** 0.0
24515 H99 91.8109 -2.45214 97.7089 H 0.0 **** 0.0
24516 H100 87.2113 1.96861 94.7676 H 0.0 **** 0.0
24517 H101 84.0548 3.56806 94.5482 H 0.0 **** 0.0
24518 H102 94.9563 -0.552268 93.6888 H 0.0 **** 0.0
24519 C1 13.1417 20.063 43.5595 C 0.0 **** 0.0
24520 C2 14.1817 19.1957 43.1552 C 0.0 **** 0.0
24521 C3 14.5517 19.1343 41.8242 C 0.0 **** 0.0
24522 C4 13.9699 19.89 40.8419 C 0.0 **** 0.0
24523 C5 12.9208 20.7386 41.2008 C 0.0 **** 0.0
24524 C6 12.4748 20.7884 42.5482 C 0.0 **** 0.0
24525 C7 14.8532 19.8071 39.6729 C 0.0 **** 0.0
24526 C8 16.017 19.1168 40.0291 C 0.0 **** 0.0
24527 C9 15.8224 18.5006 41.3845 C 0.0 **** 0.0
24528 C10 17.1447 19.0692 39.1453 C 0.0 **** 0.0
24529 C11 17.0128 19.5694 37.7805 C 0.0 **** 0.0
24530 C12 15.8116 20.2074 37.4058 C 0.0 **** 0.0
24531 C13 14.7664 20.3282 38.3484 C 0.0 **** 0.0
24532 C14 13.5192 20.9991 37.923 C 0.0 **** 0.0
24533 C15 13.1969 20.6545 36.4412 C 0.0 **** 0.0
24534 C16 14.3703 21.1571 35.5911 C 0.0 **** 0.0
24535 C17 15.682 20.7049 36.0279 C 0.0 **** 0.0
24536 C18 16.8279 20.9782 35.281 C 0.0 **** 0.0
24537 C19 18.0118 20.3113 35.6018 C 0.0 **** 0.0
24538 C20 18.0688 19.4892 36.7732 C 0.0 **** 0.0
24539 C21 19.2154 18.7133 37.2378 C 0.0 **** 0.0
24540 C22 19.41 18.422 38.6008 C 0.0 **** 0.0
24541 C23 18.4215 18.5227 39.551 C 0.0 **** 0.0
24542 C24 19.2306 20.544 34.7627 C 0.0 **** 0.0
24543 C25 19.2373 21.6288 33.6938 C 0.0 **** 0.0
24544 C26 18.0315 22.2889 33.3524 C 0.0 **** 0.0
24545 C27 16.7324 21.8716 34.0108 C 0.0 **** 0.0
24546 C28 18.0322 23.2601 32.3376 C 0.0 **** 0.0
24547 C29 19.1944 23.4159 31.5585 C 0.0 **** 0.0
24548 C30 20.3471 22.7102 31.8291 C 0.0 **** 0.0
24549 C31 20.4179 21.8442 32.9357 C 0.0 **** 0.0
24550 C32 21.5447 22.7681 30.8566 C 0.0 **** 0.0
24551 C33 21.3922 23.4233 29.4873 C 0.0 **** 0.0
24552 C34 19.9379 23.713 29.1603 C 0.0 **** 0.0
24553 C35 19.1624 24.3503 30.3511 C 0.0 **** 0.0
24554 C36 21.6526 21.2205 33.1974 C 0.0 **** 0.0
24555 C37 22.8082 21.4324 32.4289 C 0.0 **** 0.0
24556 C38 22.7641 22.1704 31.2431 C 0.0 **** 0.0
24557 C39 20.8309 17.9752 38.8622 C 0.0 **** 0.0
24558 C40 21.3328 17.8905 37.4889 C 0.0 **** 0.0
24559 C41 20.3696 18.2286 36.5825 C 0.0 **** 0.0
24560 C42 20.5662 17.8775 35.242 C 0.0 **** 0.0
24561 C43 21.9172 17.6155 34.7936 C 0.0 **** 0.0
24562 C44 22.9475 17.4959 35.6831 C 0.0 **** 0.0
24563 C45 22.6463 17.5914 37.0692 C 0.0 **** 0.0
24564 C46 23.6196 17.3169 38.0071 C 0.0 **** 0.0
24565 C47 24.9475 17.1083 37.6075 C 0.0 **** 0.0
24566 C48 25.2221 16.9467 36.2293 C 0.0 **** 0.0
24567 C49 24.2721 17.1386 35.2601 C 0.0 **** 0.0
24568 C50 24.5326 17.1393 33.8872 C 0.0 **** 0.0
24569 C51 23.4824 17.321 32.9995 C 0.0 **** 0.0
24570 C52 22.1711 17.5314 33.4457 C 0.0 **** 0.0
24571 O53 12.8688 20.3304 44.9027 O 0.0 **** 0.0
24572 C54 11.3401 21.6842 42.8658 C 0.0 **** 0.0
24573 O55 18.6845 18.1859 40.8674 O 0.0 **** 0.0
24574 C56 25.9729 16.6915 38.614 C 0.0 **** 0.0
24575 C57 26.2684 17.7685 39.686 C 0.0 **** 0.0
24576 O58 24.0285 20.952 32.8405 O 0.0 **** 0.0
24577 O59 16.9239 24.0828 32.0385 O 0.0 **** 0.0
24578 O60 25.7977 17.0438 33.3276 O 0.0 **** 0.0
24579 H61 14.6744 18.6196 43.9216 H 0.0 **** 0.0
24580 H62 12.3831 21.3482 40.5319 H 0.0 **** 0.0
24581 H63 15.7111 17.3675 41.289 H 0.0 **** 0.0
24582 H64 16.6881 18.7269 42.1364 H 0.0 **** 0.0
24583 H65 12.7042 20.5066 38.4838 H 0.0 **** 0.0
24584 H66 13.5148 22.0552 38.2194 H 0.0 **** 0.0
24585 H67 13.182 19.5532 36.3324 H 0.0 **** 0.0
24586 H68 12.2212 21.0818 36.1237 H 0.0 **** 0.0
24587 H69 14.2087 20.8484 34.5147 H 0.0 **** 0.0
24588 H70 14.3512 22.2269 35.5809 H 0.0 **** 0.0
24589 H71 20.0811 20.6557 35.4353 H 0.0 **** 0.0
24590 H72 16.1126 22.7651 34.3034 H 0.0 **** 0.0
24591 H73 22.0345 24.3501 29.4408 H 0.0 **** 0.0
24592 H74 21.7091 22.7091 28.7328 H 0.0 **** 0.0
24593 H75 19.9607 24.3368 28.3119 H 0.0 **** 0.0
24594 H76 19.4101 22.8221 28.896 H 0.0 **** 0.0
24595 H77 19.6387 25.3344 30.6593 H 0.0 **** 0.0
24596 H78 18.1174 24.5292 29.9489 H 0.0 **** 0.0
24597 H79 21.7547 20.6276 34.0871 H 0.0 **** 0.0
24598 H80 23.6219 22.2216 30.5462 H 0.0 **** 0.0
24599 H81 21.3733 18.7966 39.3497 H 0.0 **** 0.0
24600 H82 20.87 16.9699 39.3536 H 0.0 **** 0.0
24601 H83 19.7907 17.7346 34.5339 H 0.0 **** 0.0
24602 H84 23.408 17.2149 39.1263 H 0.0 **** 0.0
24603 H85 26.2226 16.6598 35.9536 H 0.0 **** 0.0
24604 H86 23.7698 17.3142 31.9217 H 0.0 **** 0.0
24605 H87 21.3465 17.6818 32.7137 H 0.0 **** 0.0
24606 H88 13.3659 19.7695 45.5812 H 0.0 **** 0.0
24607 H89 11.0041 21.6299 43.8909 H 0.0 **** 0.0
24608 H90 10.5142 21.3331 42.2272 H 0.0 **** 0.0
24609 H91 11.6202 22.7421 42.6118 H 0.0 **** 0.0
24610 H92 19.648 17.935 41.0322 H 0.0 **** 0.0
24611 H93 25.6347 15.7488 39.1257 H 0.0 **** 0.0
24612 H94 26.8268 17.3273 40.5362 H 0.0 **** 0.0
24613 H95 25.349 18.2315 40.0933 H 0.0 **** 0.0
24614 H96 26.9248 18.5354 39.1781 H 0.0 **** 0.0
24615 H97 24.0228 20.5752 33.8247 H 0.0 **** 0.0
24616 H98 16.122 24.0302 32.6204 H 0.0 **** 0.0
24617 H99 26.5667 16.7864 33.9299 H 0.0 **** 0.0
24618 H100 19.3485 19.6533 34.1464 H 0.0 **** 0.0
24619 H101 16.1612 21.2791 33.2661 H 0.0 **** 0.0
24620 H102 26.9171 16.4419 38.1062 H 0.0 **** 0.0
24621 C1 40.1064 40.4199 19.4837 C 0.0 **** 0.0
24622 C2 40.9864 39.8115 18.5897 C 0.0 **** 0.0
24623 C3 40.3962 39.2285 17.4353 C 0.0 **** 0.0
24624 C4 39.0638 39.2741 17.2011 C 0.0 **** 0.0
24625 C5 38.1718 39.8613 18.1045 C 0.0 **** 0.0
24626 C6 38.72 40.5002 19.2186 C 0.0 **** 0.0
24627 C7 38.8036 38.7325 15.8845 C 0.0 **** 0.0
24628 C8 39.9837 38.4025 15.3211 C 0.0 **** 0.0
24629 C9 41.1427 38.6536 16.2933 C 0.0 **** 0.0
24630 C10 40.071 37.7834 14.0604 C 0.0 **** 0.0
24631 C11 38.8253 37.4514 13.3854 C 0.0 **** 0.0
24632 C12 37.6355 37.7154 14.0226 C 0.0 **** 0.0
24633 C13 37.585 38.2702 15.3379 C 0.0 **** 0.0
24634 C14 36.2457 38.3513 16.0921 C 0.0 **** 0.0
24635 C15 35.0756 37.5238 15.5312 C 0.0 **** 0.0
24636 C16 34.9917 37.6936 14.0243 C 0.0 **** 0.0
24637 C17 36.3599 37.4674 13.3264 C 0.0 **** 0.0
24638 C18 36.3905 37.162 11.9472 C 0.0 **** 0.0
24639 C19 37.6326 36.8451 11.3347 C 0.0 **** 0.0
24640 C20 38.8339 36.9263 12.0757 C 0.0 **** 0.0
24641 C21 40.1267 36.6368 11.5268 C 0.0 **** 0.0
24642 C22 41.3074 37.0418 12.1036 C 0.0 **** 0.0
24643 C23 41.3298 37.5422 13.4195 C 0.0 **** 0.0
24644 C24 37.6914 36.8245 9.79193 C 0.0 **** 0.0
24645 C25 36.5722 37.513 9.06414 C 0.0 **** 0.0
24646 C26 35.4018 37.81 9.761 C 0.0 **** 0.0
24647 C27 35.1504 37.1788 11.1153 C 0.0 **** 0.0
24648 C28 34.4599 38.6878 9.18464 C 0.0 **** 0.0
24649 C29 34.7076 39.2186 7.95807 C 0.0 **** 0.0
24650 C30 35.7892 38.703 7.15557 C 0.0 **** 0.0
24651 C31 36.7448 37.8745 7.73569 C 0.0 **** 0.0
24652 C32 35.8301 38.9565 5.71125 C 0.0 **** 0.0
24653 C33 34.6229 39.6477 5.04316 C 0.0 **** 0.0
24654 C34 33.3597 39.7459 6.00162 C 0.0 **** 0.0
24655 C35 33.8218 40.2833 7.41564 C 0.0 **** 0.0
24656 C36 37.8724 37.4704 6.9446 C 0.0 **** 0.0
24657 C37 38.0709 37.8643 5.62859 C 0.0 **** 0.0
24658 C38 37.0168 38.571 4.99718 C 0.0 **** 0.0
24659 C39 42.4937 36.5651 11.3211 C 0.0 **** 0.0
24660 C40 41.8088 35.6956 10.3355 C 0.0 **** 0.0
24661 C41 40.463 35.6918 10.5891 C 0.0 **** 0.0
24662 C42 39.6581 34.6427 10.1685 C 0.0 **** 0.0
24663 C43 40.1391 33.6649 9.31195 C 0.0 **** 0.0
24664 C44 41.5109 33.6656 9.014 C 0.0 **** 0.0
24665 C45 42.373 34.6903 9.56169 C 0.0 **** 0.0
24666 C46 43.7415 34.4879 9.60095 C 0.0 **** 0.0
24667 C47 44.1962 33.196 9.33382 C 0.0 **** 0.0
24668 C48 43.4328 32.3037 8.60763 C 0.0 **** 0.0
24669 C49 42.0752 32.513 8.39564 C 0.0 **** 0.0
24670 C50 41.2142 31.5236 7.8622 C 0.0 **** 0.0
24671 C51 39.8284 31.6099 7.97767 C 0.0 **** 0.0
24672 C52 39.3029 32.6865 8.73854 C 0.0 **** 0.0
24673 O53 40.5663 40.8088 20.7681 O 0.0 **** 0.0
24674 C54 37.8235 41.3239 20.0913 C 0.0 **** 0.0
24675 O55 42.546 37.8992 14.0102 O 0.0 **** 0.0
24676 C56 45.3166 32.626 10.1952 C 0.0 **** 0.0
24677 C57 46.6225 32.5821 9.42356 C 0.0 **** 0.0
24678 O58 39.169 37.3734 4.8932 O 0.0 **** 0.0
24679 O59 33.2458 38.9384 9.8351 O 0.0 **** 0.0
24680 O60 41.6392 30.31 7.30468 O 0.0 **** 0.0
24681 H61 42.0438 39.7339 18.7436 H 0.0 **** 0.0
24682 H62 37.1541 40.0099 17.885 H 0.0 **** 0.0
24683 H63 41.7149 37.7293 16.5707 H 0.0 **** 0.0
24684 H64 41.8458 39.5111 15.9231 H 0.0 **** 0.0
24685 H65 36.4406 38.0246 17.1258 H 0.0 **** 0.0
24686 H66 35.9858 39.4615 15.9884 H 0.0 **** 0.0
24687 H67 35.139 36.4346 15.797 H 0.0 **** 0.0
24688 H68 34.1262 37.8488 15.9701 H 0.0 **** 0.0
24689 H69 34.235 36.9831 13.6548 H 0.0 **** 0.0
24690 H70 34.6546 38.7349 13.802 H 0.0 **** 0.0
24691 H71 38.5638 37.4135 9.47934 H 0.0 **** 0.0
24692 H72 34.3651 37.7929 11.6097 H 0.0 **** 0.0
24693 H73 34.869 40.6992 4.7666 H 0.0 **** 0.0
24694 H74 34.3078 39.0894 4.1594 H 0.0 **** 0.0
24695 H75 32.6345 40.431 5.48599 H 0.0 **** 0.0
24696 H76 32.8653 38.7307 6.18416 H 0.0 **** 0.0
24697 H77 34.3557 41.2568 7.2798 H 0.0 **** 0.0
24698 H78 32.8756 40.4744 8.05265 H 0.0 **** 0.0
24699 H79 38.6305 36.86 7.36275 H 0.0 **** 0.0
24700 H80 37.129 38.7322 3.91886 H 0.0 **** 0.0
24701 H81 42.9976 37.3913 10.7856 H 0.0 **** 0.0
24702 H82 43.0974 35.9666 12.0049 H 0.0 **** 0.0
24703 H83 38.6906 34.4793 10.5158 H 0.0 **** 0.0
24704 H84 44.3424 35.1989 10.1641 H 0.0 **** 0.0
24705 H85 43.8467 31.3341 8.51136 H 0.0 **** 0.0
24706 H86 39.1168 30.8494 7.56251 H 0.0 **** 0.0
24707 H87 38.2708 32.6462 8.99743 H 0.0 **** 0.0
24708 H88 41.545 40.5642 20.8933 H 0.0 **** 0.0
24709 H89 37.7372 40.9326 21.1306 H 0.0 **** 0.0
24710 H90 36.7962 41.4354 19.6411 H 0.0 **** 0.0
24711 H91 38.2985 42.3122 20.1742 H 0.0 **** 0.0
24712 H92 43.2765 37.8829 13.3519 H 0.0 **** 0.0
24713 H93 45.4574 33.2402 11.1131 H 0.0 **** 0.0
24714 H94 47.4453 32.2846 10.0868 H 0.0 **** 0.0
24715 H95 46.8443 33.5585 8.95623 H 0.0 **** 0.0
24716 H96 46.6355 31.8826 8.57058 H 0.0 **** 0.0
24717 H97 39.6133 36.5405 5.30831 H 0.0 **** 0.0
24718 H98 32.6972 38.1447 10.0678 H 0.0 **** 0.0
24719 H99 42.6515 30.2198 7.21862 H 0.0 **** 0.0
24720 H100 37.6406 35.8521 9.30115 H 0.0 **** 0.0
24721 H101 34.7744 36.1638 10.9877 H 0.0 **** 0.0
24722 H102 45.0662 31.6062 10.5773 H 0.0 **** 0.0
24723 C1 96.5634 29.4968 79.3702 C 0.0 **** 0.0
24724 C2 95.8425 30.5574 79.9297 C 0.0 **** 0.0
24725 C3 96.3777 31.8307 79.9933 C 0.0 **** 0.0
24726 C4 97.6687 32.0464 79.5544 C 0.0 **** 0.0
24727 C5 98.4328 31.0307 78.9736 C 0.0 **** 0.0
24728 C6 97.8774 29.7063 78.9572 C 0.0 **** 0.0
24729 C7 97.8677 33.5057 79.5391 C 0.0 **** 0.0
24730 C8 96.6234 34.1016 79.8058 C 0.0 **** 0.0
24731 C9 95.5908 33.0906 80.1268 C 0.0 **** 0.0
24732 C10 96.5161 35.516 79.8382 C 0.0 **** 0.0
24733 C11 97.6836 36.3139 79.678 C 0.0 **** 0.0
24734 C12 98.9236 35.7123 79.4801 C 0.0 **** 0.0
24735 C13 99.0414 34.2933 79.4727 C 0.0 **** 0.0
24736 C14 100.392 33.6986 79.1962 C 0.0 **** 0.0
24737 C15 101.543 34.5768 79.6615 C 0.0 **** 0.0
24738 C16 101.468 35.9664 79.0251 C 0.0 **** 0.0
24739 C17 100.138 36.6181 79.2198 C 0.0 **** 0.0
24740 C18 99.8849 37.9498 78.9866 C 0.0 **** 0.0
24741 C19 98.5998 38.4951 79.1988 C 0.0 **** 0.0
24742 C20 97.547 37.7119 79.7238 C 0.0 **** 0.0
24743 C21 96.31 38.2499 80.1614 C 0.0 **** 0.0
24744 C22 95.1601 37.5225 80.0428 C 0.0 **** 0.0
24745 C23 95.2184 36.144 79.9125 C 0.0 **** 0.0
24746 C24 98.3296 39.8665 78.5156 C 0.0 **** 0.0
24747 C25 98.9353 39.9253 77.1443 C 0.0 **** 0.0
24748 C26 100.312 39.5832 77.0749 C 0.0 **** 0.0
24749 C27 100.893 38.9251 78.3302 C 0.0 **** 0.0
24750 C28 100.935 39.6288 75.8205 C 0.0 **** 0.0
24751 C29 100.261 40.1484 74.7037 C 0.0 **** 0.0
24752 C30 98.9499 40.6641 74.8426 C 0.0 **** 0.0
24753 C31 98.2661 40.5595 76.0545 C 0.0 **** 0.0
24754 C32 98.3121 41.3662 73.6795 C 0.0 **** 0.0
24755 C33 99.031 41.616 72.3984 C 0.0 **** 0.0
24756 C34 100.525 41.3702 72.5456 C 0.0 **** 0.0
24757 C35 100.859 40.0964 73.33 C 0.0 **** 0.0
24758 C36 96.9014 40.9215 76.1071 C 0.0 **** 0.0
24759 C37 96.3318 41.5739 75.0012 C 0.0 **** 0.0
24760 C38 96.9924 41.7932 73.812 C 0.0 **** 0.0
24761 C39 93.9351 38.4017 80.1923 C 0.0 **** 0.0
24762 C40 94.577 39.6934 80.6999 C 0.0 **** 0.0
24763 C41 95.9809 39.532 80.6691 C 0.0 **** 0.0
24764 C42 96.8175 40.6209 81.0062 C 0.0 **** 0.0
24765 C43 96.2427 41.9174 81.0825 C 0.0 **** 0.0
24766 C44 94.8299 42.0512 81.2417 C 0.0 **** 0.0
24767 C45 93.9913 40.9584 80.9859 C 0.0 **** 0.0
24768 C46 92.6536 41.1594 81.0158 C 0.0 **** 0.0
24769 C47 92.1081 42.3519 81.5126 C 0.0 **** 0.0
24770 C48 92.8853 43.4226 81.8783 C 0.0 **** 0.0
24771 C49 94.2698 43.3053 81.7168 C 0.0 **** 0.0
24772 C50 95.1639 44.3677 81.9733 C 0.0 **** 0.0
24773 C51 96.5869 44.1672 81.8195 C 0.0 **** 0.0
24774 C52 97.0717 43.0027 81.2332 C 0.0 **** 0.0
24775 O53 95.9481 28.237 79.1833 O 0.0 **** 0.0
24776 C54 98.6789 28.6151 78.3497 C 0.0 **** 0.0
24777 O55 94.0364 35.356 79.9642 O 0.0 **** 0.0
24778 C56 90.6194 42.4496 81.8213 C 0.0 **** 0.0
24779 C57 89.8178 43.0307 80.6595 C 0.0 **** 0.0
24780 O58 95.0102 41.9733 75.0965 O 0.0 **** 0.0
24781 O59 102.275 39.2507 75.6574 O 0.0 **** 0.0
24782 O60 94.7657 45.6141 82.5077 O 0.0 **** 0.0
24783 H61 94.7936 30.4037 80.1801 H 0.0 **** 0.0
24784 H62 99.4427 31.2239 78.5802 H 0.0 **** 0.0
24785 H63 95.2076 33.1522 81.1687 H 0.0 **** 0.0
24786 H64 94.8103 33.0372 79.3836 H 0.0 **** 0.0
24787 H65 100.467 32.7502 79.7123 H 0.0 **** 0.0
24788 H66 100.464 33.4755 78.1266 H 0.0 **** 0.0
24789 H67 101.506 34.6974 80.7271 H 0.0 **** 0.0
24790 H68 102.536 34.1601 79.4233 H 0.0 **** 0.0
24791 H69 102.266 36.6124 79.4804 H 0.0 **** 0.0
24792 H70 101.669 35.8562 77.9241 H 0.0 **** 0.0
24793 H71 97.2473 40.0341 78.5013 H 0.0 **** 0.0
24794 H72 101.838 38.4634 78.2094 H 0.0 **** 0.0
24795 H73 98.5896 40.9811 71.5806 H 0.0 **** 0.0
24796 H74 98.8315 42.6523 72.0752 H 0.0 **** 0.0
24797 H75 101.02 41.2745 71.5301 H 0.0 **** 0.0
24798 H76 100.972 42.2169 73.0703 H 0.0 **** 0.0
24799 H77 100.502 39.204 72.7985 H 0.0 **** 0.0
24800 H78 101.954 40.0523 73.4441 H 0.0 **** 0.0
24801 H79 96.2854 40.7704 76.9329 H 0.0 **** 0.0
24802 H80 96.4879 42.3116 72.9737 H 0.0 **** 0.0
24803 H81 93.4185 38.5473 79.2257 H 0.0 **** 0.0
24804 H82 93.2385 37.9612 80.9478 H 0.0 **** 0.0
24805 H83 97.8985 40.4108 81.1306 H 0.0 **** 0.0
24806 H84 92.0231 40.3086 80.822 H 0.0 **** 0.0
24807 H85 92.4026 44.3455 82.147 H 0.0 **** 0.0
24808 H86 97.2703 44.9598 82.0949 H 0.0 **** 0.0
24809 H87 98.1379 42.9582 80.9936 H 0.0 **** 0.0
24810 H88 94.9423 28.1703 79.4153 H 0.0 **** 0.0
24811 H89 98.1664 28.3663 77.3871 H 0.0 **** 0.0
24812 H90 98.7612 27.7098 78.9811 H 0.0 **** 0.0
24813 H91 99.6897 29.014 78.1041 H 0.0 **** 0.0
24814 H92 93.1738 35.9215 79.8814 H 0.0 **** 0.0
24815 H93 90.2305 41.3921 81.9275 H 0.0 **** 0.0
24816 H94 88.7563 43.0715 80.912 H 0.0 **** 0.0
24817 H95 89.9731 42.4053 79.744 H 0.0 **** 0.0
24818 H96 90.1465 44.1109 80.4819 H 0.0 **** 0.0
24819 H97 94.4706 41.4373 75.7436 H 0.0 **** 0.0
24820 H98 102.8 39.0462 76.493 H 0.0 **** 0.0
24821 H99 93.8358 45.6407 82.8473 H 0.0 **** 0.0
24822 H100 98.7629 40.6278 79.1128 H 0.0 **** 0.0
24823 H101 101.094 39.7423 79.042 H 0.0 **** 0.0
24824 H102 90.35 42.9568 82.7449 H 0.0 **** 0.0
24825 C1 10.2956 77.2534 10.3153 C 0.0 **** 0.0
24826 C2 9.83136 78.4776 9.72578 C 0.0 **** 0.0
24827 C3 10.2794 79.7223 10.1988 C 0.0 **** 0.0
24828 C4 11.2525 79.7807 11.183 C 0.0 **** 0.0
24829 C5 11.8153 78.6279 11.6856 C 0.0 **** 0.0
24830 C6 11.3334 77.3601 11.2934 C 0.0 **** 0.0
24831 C7 11.5405 81.2055 11.5365 C 0.0 **** 0.0
24832 C8 10.7378 82.002 10.7405 C 0.0 **** 0.0
24833 C9 9.91581 81.1468 9.82711 C 0.0 **** 0.0
24834 C10 10.8254 83.4143 10.8358 C 0.0 **** 0.0
24835 C11 11.7087 83.9907 11.8406 C 0.0 **** 0.0
24836 C12 12.3165 83.1718 12.8157 C 0.0 **** 0.0
24837 C13 12.2199 81.7416 12.6729 C 0.0 **** 0.0
24838 C14 12.6172 80.875 13.8892 C 0.0 **** 0.0
24839 C15 12.3836 81.6301 15.1575 C 0.0 **** 0.0
24840 C16 13.1688 82.9308 15.1934 C 0.0 **** 0.0
24841 C17 12.9291 83.8257 13.9977 C 0.0 **** 0.0
24842 C18 13.2559 85.1672 13.9727 C 0.0 **** 0.0
24843 C19 12.8462 85.9893 12.8556 C 0.0 **** 0.0
24844 C20 11.8936 85.4536 11.9021 C 0.0 **** 0.0
24845 C21 11.0674 86.2646 11.0259 C 0.0 **** 0.0
24846 C22 10.1071 85.613 10.2083 C 0.0 **** 0.0
24847 C23 9.93093 84.226 10.1452 C 0.0 **** 0.0
24848 C24 13.7622 87.1745 12.6082 C 0.0 **** 0.0
24849 C25 13.9225 88.0301 13.8524 C 0.0 **** 0.0
24850 C26 14.1105 87.3187 15.0812 C 0.0 **** 0.0
24851 C27 13.9467 85.783 15.1587 C 0.0 **** 0.0
24852 C28 14.4789 87.9765 16.2797 C 0.0 **** 0.0
24853 C29 14.8894 89.3073 16.2335 C 0.0 **** 0.0
24854 C30 14.691 89.9986 15.0044 C 0.0 **** 0.0
24855 C31 14.1713 89.4164 13.8316 C 0.0 **** 0.0
24856 C32 15.0986 91.4409 14.9436 C 0.0 **** 0.0
24857 C33 15.7367 92.1041 16.1435 C 0.0 **** 0.0
24858 C34 15.3156 91.4359 17.4372 C 0.0 **** 0.0
24859 C35 15.5436 89.9555 17.409 C 0.0 **** 0.0
24860 C36 13.9401 90.2431 12.7 C 0.0 **** 0.0
24861 C37 14.395 91.5895 12.6301 C 0.0 **** 0.0
24862 C38 15.0349 92.1438 13.7362 C 0.0 **** 0.0
24863 C39 9.24869 86.5422 9.47144 C 0.0 **** 0.0
24864 C40 9.78811 87.8104 9.9388 C 0.0 **** 0.0
24865 C41 10.7725 87.6176 10.9111 C 0.0 **** 0.0
24866 C42 11.0593 88.6717 11.838 C 0.0 **** 0.0
24867 C43 10.462 89.9335 11.6008 C 0.0 **** 0.0
24868 C44 9.52217 90.1132 10.5158 C 0.0 **** 0.0
24869 C45 9.16466 89.0131 9.72598 C 0.0 **** 0.0
24870 C46 8.16775 89.1511 8.76523 C 0.0 **** 0.0
24871 C47 7.60279 90.3968 8.50293 C 0.0 **** 0.0
24872 C48 7.79984 91.4295 9.38032 C 0.0 **** 0.0
24873 C49 8.78613 91.3416 10.3836 C 0.0 **** 0.0
24874 C50 9.02808 92.3712 11.3104 C 0.0 **** 0.0
24875 C51 9.97004 92.2163 12.3461 C 0.0 **** 0.0
24876 C52 10.6795 91.04 12.4652 C 0.0 **** 0.0
24877 O53 9.85513 75.9984 9.89814 O 0.0 **** 0.0
24878 C54 11.8879 76.1099 11.8626 C 0.0 **** 0.0
24879 O55 8.89846 83.6688 9.3688 O 0.0 **** 0.0
24880 C56 6.48768 90.4838 7.4677 C 0.0 **** 0.0
24881 C57 7.0728 90.2056 6.05815 C 0.0 **** 0.0
24882 O58 14.3934 92.3349 11.4177 O 0.0 **** 0.0
24883 O59 14.7669 87.274 17.4617 O 0.0 **** 0.0
24884 O60 8.34738 93.5644 11.185 O 0.0 **** 0.0
24885 H61 9.14701 78.4086 8.89932 H 0.0 **** 0.0
24886 H62 12.6064 78.6655 12.4249 H 0.0 **** 0.0
24887 H63 8.84421 81.243 10.0956 H 0.0 **** 0.0
24888 H64 10.0652 81.3463 8.72289 H 0.0 **** 0.0
24889 H65 11.9941 79.9717 13.928 H 0.0 **** 0.0
24890 H66 13.6499 80.531 13.8026 H 0.0 **** 0.0
24891 H67 11.2851 81.8604 15.3113 H 0.0 **** 0.0
24892 H68 12.7375 80.9957 15.9902 H 0.0 **** 0.0
24893 H69 12.8487 83.4651 16.1164 H 0.0 **** 0.0
24894 H70 14.2004 82.6886 15.3471 H 0.0 **** 0.0
24895 H71 14.8112 86.8264 12.3671 H 0.0 **** 0.0
24896 H72 14.9486 85.258 15.3163 H 0.0 **** 0.0
24897 H73 16.8307 92.078 16.0312 H 0.0 **** 0.0
24898 H74 15.5095 93.2085 16.1924 H 0.0 **** 0.0
24899 H75 15.8824 91.9187 18.2978 H 0.0 **** 0.0
24900 H76 14.2356 91.6844 17.6341 H 0.0 **** 0.0
24901 H77 16.5829 89.7281 17.4127 H 0.0 **** 0.0
24902 H78 15.1312 89.5503 18.35 H 0.0 **** 0.0
24903 H79 13.5301 89.8741 11.7578 H 0.0 **** 0.0
24904 H80 15.468 93.1775 13.6203 H 0.0 **** 0.0
24905 H81 9.34451 86.4318 8.4108 H 0.0 **** 0.0
24906 H82 8.19745 86.395 9.75541 H 0.0 **** 0.0
24907 H83 11.5223 88.4795 12.7732 H 0.0 **** 0.0
24908 H84 7.86752 88.3498 8.12977 H 0.0 **** 0.0
24909 H85 7.24971 92.333 9.24026 H 0.0 **** 0.0
24910 H86 10.1433 93.0359 13.0826 H 0.0 **** 0.0
24911 H87 11.3475 91.0026 13.2656 H 0.0 **** 0.0
24912 H88 9.1618 76.0248 9.15933 H 0.0 **** 0.0
24913 H89 11.112 75.6867 12.5312 H 0.0 **** 0.0
24914 H90 12.8434 76.2391 12.4559 H 0.0 **** 0.0
24915 H91 12.1335 75.4042 11.0506 H 0.0 **** 0.0
24916 H92 8.42129 84.3313 8.77228 H 0.0 **** 0.0
24917 H93 5.76058 89.6409 7.60213 H 0.0 **** 0.0
24918 H94 7.85185 90.9393 5.83311 H 0.0 **** 0.0
24919 H95 6.25298 90.3161 5.32281 H 0.0 **** 0.0
24920 H96 7.45229 89.1431 6.01566 H 0.0 **** 0.0
24921 H97 14.1076 91.769 10.6174 H 0.0 **** 0.0
24922 H98 15.1078 86.3645 17.3175 H 0.0 **** 0.0
24923 H99 8.62249 94.2732 11.8551 H 0.0 **** 0.0
24924 H100 13.4756 87.7027 11.7238 H 0.0 **** 0.0
24925 H101 13.3027 85.6275 16.0989 H 0.0 **** 0.0
24926 H102 5.94299 91.5025 7.48013 H 0.0 **** 0.0
24927 C1 51.8685 50.0408 73.1514 C 0.0 **** 0.0
24928 C2 51.958 49.0325 72.2197 C 0.0 **** 0.0
24929 C3 51.0102 48.9551 71.1773 C 0.0 **** 0.0
24930 C4 50.0098 49.8668 71.053 C 0.0 **** 0.0
24931 C5 49.989 50.9829 71.9237 C 0.0 **** 0.0
24932 C6 50.846 51.0529 73.0555 C 0.0 **** 0.0
24933 C7 49.3164 49.6135 69.7846 C 0.0 **** 0.0
24934 C8 49.9928 48.6012 69.0856 C 0.0 **** 0.0
24935 C9 51.1198 48.0571 69.9627 C 0.0 **** 0.0
24936 C10 49.6722 48.2995 67.7746 C 0.0 **** 0.0
24937 C11 48.6955 49.088 67.1112 C 0.0 **** 0.0
24938 C12 47.9282 50.0325 67.8617 C 0.0 **** 0.0
24939 C13 48.2098 50.2618 69.2208 C 0.0 **** 0.0
24940 C14 47.29 51.1696 70.0492 C 0.0 **** 0.0
24941 C15 45.841 51.1083 69.4974 C 0.0 **** 0.0
24942 C16 45.7745 51.4715 68.0433 C 0.0 **** 0.0
24943 C17 46.8108 50.7372 67.2048 C 0.0 **** 0.0
24944 C18 46.926 50.8568 65.786 C 0.0 **** 0.0
24945 C19 47.8081 50.0554 65.0548 C 0.0 **** 0.0
24946 C20 48.5068 48.9909 65.7094 C 0.0 **** 0.0
24947 C21 49.0803 47.8226 65.0911 C 0.0 **** 0.0
24948 C22 50.0176 47.0688 65.7182 C 0.0 **** 0.0
24949 C23 50.3834 47.2584 67.0445 C 0.0 **** 0.0
24950 C24 48.3419 50.6272 63.7636 C 0.0 **** 0.0
24951 C25 47.7133 51.8614 63.1423 C 0.0 **** 0.0
24952 C26 46.564 52.4092 63.7579 C 0.0 **** 0.0
24953 C27 46.0519 51.8727 65.0744 C 0.0 **** 0.0
24954 C28 45.7363 53.2812 63.0128 C 0.0 **** 0.0
24955 C29 46.086 53.6504 61.7055 C 0.0 **** 0.0
24956 C30 47.2328 53.1291 61.0994 C 0.0 **** 0.0
24957 C31 48.0743 52.2793 61.8292 C 0.0 **** 0.0
24958 C32 47.6026 53.5497 59.7385 C 0.0 **** 0.0
24959 C33 46.8029 54.5361 59.0042 C 0.0 **** 0.0
24960 C34 45.3401 54.4857 59.4523 C 0.0 **** 0.0
24961 C35 45.2302 54.6627 60.9248 C 0.0 **** 0.0
24962 C36 49.2416 51.7252 61.1638 C 0.0 **** 0.0
24963 C37 49.5056 52.0607 59.8162 C 0.0 **** 0.0
24964 C38 48.7959 53.0787 59.1685 C 0.0 **** 0.0
24965 C39 50.5694 46.069 64.7641 C 0.0 **** 0.0
24966 C40 49.7054 46.2313 63.603 C 0.0 **** 0.0
24967 C41 48.8269 47.233 63.8661 C 0.0 **** 0.0
24968 C42 47.6964 47.4148 63.0329 C 0.0 **** 0.0
24969 C43 47.6671 46.6781 61.8067 C 0.0 **** 0.0
24970 C44 48.6831 45.7903 61.4197 C 0.0 **** 0.0
24971 C45 49.7474 45.5271 62.3682 C 0.0 **** 0.0
24972 C46 50.7516 44.5725 61.9995 C 0.0 **** 0.0
24973 C47 50.6993 43.9556 60.7235 C 0.0 **** 0.0
24974 C48 49.6048 44.1532 59.842 C 0.0 **** 0.0
24975 C49 48.5907 45.1018 60.1623 C 0.0 **** 0.0
24976 C50 47.4967 45.3859 59.2503 C 0.0 **** 0.0
24977 C51 46.5102 46.2494 59.6953 C 0.0 **** 0.0
24978 C52 46.5862 46.8781 60.9416 C 0.0 **** 0.0
24979 O53 52.8678 50.0724 74.1363 O 0.0 **** 0.0
24980 C54 50.693 52.129 74.0679 C 0.0 **** 0.0
24981 O55 51.3082 46.3999 67.6849 O 0.0 **** 0.0
24982 C56 51.7981 42.9797 60.405 C 0.0 **** 0.0
24983 C57 51.7015 41.6033 61.1534 C 0.0 **** 0.0
24984 O58 50.5029 51.3897 59.0988 O 0.0 **** 0.0
24985 O59 44.522 53.7248 63.525 O 0.0 **** 0.0
24986 O60 47.4172 44.8735 57.9164 O 0.0 **** 0.0
24987 H61 52.8188 48.3267 72.2545 H 0.0 **** 0.0
24988 H62 49.3243 51.8156 71.7231 H 0.0 **** 0.0
24989 H63 50.9512 46.9879 70.2087 H 0.0 **** 0.0
24990 H64 52.0932 48.2314 69.4993 H 0.0 **** 0.0
24991 H65 47.3043 50.7914 71.0911 H 0.0 **** 0.0
24992 H66 47.6737 52.1832 70.0736 H 0.0 **** 0.0
24993 H67 45.3888 50.0935 69.6335 H 0.0 **** 0.0
24994 H68 45.2275 51.8107 70.0638 H 0.0 **** 0.0
24995 H69 44.7421 51.2504 67.7905 H 0.0 **** 0.0
24996 H70 46.0367 52.5344 67.8828 H 0.0 **** 0.0
24997 H71 49.4392 50.7726 63.8982 H 0.0 **** 0.0
24998 H72 45.8183 52.7618 65.7193 H 0.0 **** 0.0
24999 H73 47.1164 55.618 59.1175 H 0.0 **** 0.0
25000 H74 46.7815 54.2489 57.9542 H 0.0 **** 0.0
25001 H75 44.6988 55.2984 58.9637 H 0.0 **** 0.0
25002 H76 44.9461 53.4445 59.1923 H 0.0 **** 0.0
25003 H77 45.5459 55.7073 61.2053 H 0.0 **** 0.0
25004 H78 44.1409 54.6171 61.1898 H 0.0 **** 0.0
25005 H79 49.8394 50.9541 61.6354 H 0.0 **** 0.0
25006 H80 49.0887 53.4124 58.1842 H 0.0 **** 0.0
25007 H81 51.6738 46.2894 64.5489 H 0.0 **** 0.0
25008 H82 50.2972 45.0255 65.1386 H 0.0 **** 0.0
25009 H83 46.9098 48.0923 63.2447 H 0.0 **** 0.0
25010 H84 51.6149 44.4132 62.6936 H 0.0 **** 0.0
25011 H85 49.6532 43.614 58.8833 H 0.0 **** 0.0
25012 H86 45.6648 46.4209 59.0356 H 0.0 **** 0.0
25013 H87 45.758 47.5103 61.2483 H 0.0 **** 0.0
25014 H88 52.8245 50.9296 74.7123 H 0.0 **** 0.0
25015 H89 50.6981 51.6497 75.0382 H 0.0 **** 0.0
25016 H90 49.7117 52.6665 73.8741 H 0.0 **** 0.0
25017 H91 51.5696 52.8323 74.0166 H 0.0 **** 0.0
25018 H92 51.6866 45.6012 67.0851 H 0.0 **** 0.0
25019 H93 51.7343 42.8077 59.313 H 0.0 **** 0.0
25020 H94 52.6321 40.9915 60.948 H 0.0 **** 0.0
25021 H95 50.8236 41.0713 60.8147 H 0.0 **** 0.0
25022 H96 51.6909 41.7299 62.2694 H 0.0 **** 0.0
25023 H97 50.9762 50.6562 59.5684 H 0.0 **** 0.0
25024 H98 44.3217 53.5587 64.4583 H 0.0 **** 0.0
25025 H99 48.1257 44.2177 57.6751 H 0.0 **** 0.0
25026 H100 48.2192 49.8991 63.0052 H 0.0 **** 0.0
25027 H101 45.0887 51.3154 64.7739 H 0.0 **** 0.0
25028 H102 52.7649 43.3881 60.6987 H 0.0 **** 0.0
25029 C1 36.6628 67.6989 79.6139 C 0.0 **** 0.0
25030 C2 36.3849 66.9157 78.4796 C 0.0 **** 0.0
25031 C3 37.412 66.12 77.9696 C 0.0 **** 0.0
25032 C4 38.6569 66.0422 78.5108 C 0.0 **** 0.0
25033 C5 38.9557 66.797 79.6128 C 0.0 **** 0.0
25034 C6 37.9718 67.629 80.189 C 0.0 **** 0.0
25035 C7 39.5081 65.0868 77.7649 C 0.0 **** 0.0
25036 C8 38.666 64.499 76.8472 C 0.0 **** 0.0
25037 C9 37.3057 65.1235 76.8664 C 0.0 **** 0.0
25038 C10 39.1339 63.4964 75.9443 C 0.0 **** 0.0
25039 C11 40.5271 63.112 75.9797 C 0.0 **** 0.0
25040 C12 41.3946 63.7914 76.9001 C 0.0 **** 0.0
25041 C13 40.9029 64.8731 77.7296 C 0.0 **** 0.0
25042 C14 41.9289 65.7743 78.4174 C 0.0 **** 0.0
25043 C15 43.3553 65.6033 77.7984 C 0.0 **** 0.0
25044 C16 43.7501 64.1142 77.7926 C 0.0 **** 0.0
25045 C17 42.8007 63.3372 76.9255 C 0.0 **** 0.0
25046 C18 43.2053 62.1561 76.2333 C 0.0 **** 0.0
25047 C19 42.4251 61.6391 75.2338 C 0.0 **** 0.0
25048 C20 41.0659 62.1303 75.0636 C 0.0 **** 0.0
25049 C21 40.2347 61.7965 73.9809 C 0.0 **** 0.0
25050 C22 38.8477 62.0572 74.0352 C 0.0 **** 0.0
25051 C23 38.2579 62.8744 75.0382 C 0.0 **** 0.0
25052 C24 42.8051 60.3109 74.6597 C 0.0 **** 0.0
25053 C25 44.3008 60.3106 74.319 C 0.0 **** 0.0
25054 C26 45.1682 60.9343 75.2672 C 0.0 **** 0.0
25055 C27 44.5278 61.4305 76.5546 C 0.0 **** 0.0
25056 C28 46.5246 61.2211 74.9406 C 0.0 **** 0.0
25057 C29 46.9335 61.0202 73.6124 C 0.0 **** 0.0
25058 C30 46.1416 60.2793 72.7273 C 0.0 **** 0.0
25059 C31 44.8188 59.9286 73.0628 C 0.0 **** 0.0
25060 C32 46.6553 59.9635 71.3407 C 0.0 **** 0.0
25061 C33 48.0244 60.4664 70.9685 C 0.0 **** 0.0
25062 C34 48.3913 61.6997 71.6886 C 0.0 **** 0.0
25063 C35 48.2675 61.554 73.217 C 0.0 **** 0.0
25064 C36 44.0294 59.181 72.101 C 0.0 **** 0.0
25065 C37 44.5314 58.9217 70.7867 C 0.0 **** 0.0
25066 C38 45.828 59.2611 70.4403 C 0.0 **** 0.0
25067 C39 38.1952 61.7465 72.7137 C 0.0 **** 0.0
25068 C40 39.3947 61.3848 71.9242 C 0.0 **** 0.0
25069 C41 40.5631 61.4661 72.6771 C 0.0 **** 0.0
25070 C42 41.8427 61.5331 72.0567 C 0.0 **** 0.0
25071 C43 41.8919 61.407 70.6828 C 0.0 **** 0.0
25072 C44 40.7018 61.1847 69.9227 C 0.0 **** 0.0
25073 C45 39.4471 61.192 70.5553 C 0.0 **** 0.0
25074 C46 38.2589 61.1007 69.8188 C 0.0 **** 0.0
25075 C47 38.2926 60.8812 68.435 C 0.0 **** 0.0
25076 C48 39.5479 60.854 67.818 C 0.0 **** 0.0
25077 C49 40.7547 60.9689 68.5161 C 0.0 **** 0.0
25078 C50 42.0149 61.0147 67.8772 C 0.0 **** 0.0
25079 C51 43.1509 61.3883 68.6557 C 0.0 **** 0.0
25080 C52 43.1072 61.4839 70.0349 C 0.0 **** 0.0
25081 O53 35.7067 68.5568 80.232 O 0.0 **** 0.0
25082 C54 38.3005 68.4812 81.3431 C 0.0 **** 0.0
25083 O55 36.946 63.2871 74.9433 O 0.0 **** 0.0
25084 C56 37.0271 60.8444 67.6685 C 0.0 **** 0.0
25085 C57 36.8816 59.602 66.7474 C 0.0 **** 0.0
25086 O58 43.7737 58.3284 69.7838 O 0.0 **** 0.0
25087 O59 47.5125 61.6357 75.8866 O 0.0 **** 0.0
25088 O60 42.2125 60.888 66.5127 O 0.0 **** 0.0
25089 H61 35.3958 66.9143 77.9877 H 0.0 **** 0.0
25090 H62 39.9413 66.7859 80.007 H 0.0 **** 0.0
25091 H63 37.0045 65.5887 75.8669 H 0.0 **** 0.0
25092 H64 36.5477 64.3874 77.1345 H 0.0 **** 0.0
25093 H65 41.6357 66.8031 78.2716 H 0.0 **** 0.0
25094 H66 42.0392 65.4765 79.5295 H 0.0 **** 0.0
25095 H67 43.4513 66.057 76.766 H 0.0 **** 0.0
25096 H68 44.0957 66.102 78.498 H 0.0 **** 0.0
25097 H69 44.7653 64.1219 77.35 H 0.0 **** 0.0
25098 H70 43.7497 63.6422 78.8191 H 0.0 **** 0.0
25099 H71 42.6544 59.6354 75.5343 H 0.0 **** 0.0
25100 H72 44.1951 60.5572 77.1719 H 0.0 **** 0.0
25101 H73 48.7705 59.6741 71.1843 H 0.0 **** 0.0
25102 H74 48.0321 60.6579 69.8701 H 0.0 **** 0.0
25103 H75 49.481 61.9278 71.4504 H 0.0 **** 0.0
25104 H76 47.7104 62.5153 71.3514 H 0.0 **** 0.0
25105 H77 49.0131 60.8592 73.6419 H 0.0 **** 0.0
25106 H78 48.4015 62.5794 73.5972 H 0.0 **** 0.0
25107 H79 43.1126 58.6885 72.3441 H 0.0 **** 0.0
25108 H80 46.1454 59.0197 69.4106 H 0.0 **** 0.0
25109 H81 37.5271 60.9233 72.8204 H 0.0 **** 0.0
25110 H82 37.7239 62.6542 72.2691 H 0.0 **** 0.0
25111 H83 42.7225 61.8115 72.5886 H 0.0 **** 0.0
25112 H84 37.3277 61.1932 70.3055 H 0.0 **** 0.0
25113 H85 39.5171 60.8434 66.7889 H 0.0 **** 0.0
25114 H86 44.0981 61.5733 68.1265 H 0.0 **** 0.0
25115 H87 44.0222 61.7549 70.5109 H 0.0 **** 0.0
25116 H88 35.1733 69.0663 79.5213 H 0.0 **** 0.0
25117 H89 37.6363 68.1834 82.1895 H 0.0 **** 0.0
25118 H90 38.0756 69.5282 81.0782 H 0.0 **** 0.0
25119 H91 39.378 68.3873 81.6042 H 0.0 **** 0.0
25120 H92 36.3472 62.8202 74.2951 H 0.0 **** 0.0
25121 H93 36.14 60.8969 68.3673 H 0.0 **** 0.0
25122 H94 37.312 59.7959 65.7674 H 0.0 **** 0.0
25123 H95 35.8268 59.392 66.6371 H 0.0 **** 0.0
25124 H96 37.3671 58.6944 67.2135 H 0.0 **** 0.0
25125 H97 42.803 58.1415 69.9926 H 0.0 **** 0.0
25126 H98 47.1508 61.6966 76.8143 H 0.0 **** 0.0
25127 H99 41.4461 61.0714 65.8958 H 0.0 **** 0.0
25128 H100 42.142 59.8725 73.8371 H 0.0 **** 0.0
25129 H101 45.2149 62.0888 77.2006 H 0.0 **** 0.0
25130 H102 37.0365 61.755 67.0754 H 0.0 **** 0.0
25131 C1 76.9413 8.80185 17.9389 C 0.0 **** 0.0
25132 C2 78.2861 8.9699 17.4941 C 0.0 **** 0.0
25133 C3 78.9404 10.178 17.7427 C 0.0 **** 0.0
25134 C4 78.3267 11.1673 18.5046 C 0.0 **** 0.0
25135 C5 77.0422 10.9707 19.0562 C 0.0 **** 0.0
25136 C6 76.3233 9.82706 18.7193 C 0.0 **** 0.0
25137 C7 79.4037 12.1086 18.9421 C 0.0 **** 0.0
25138 C8 80.5716 11.7281 18.3314 C 0.0 **** 0.0
25139 C9 80.3998 10.4597 17.5385 C 0.0 **** 0.0
25140 C10 81.7336 12.5134 18.3781 C 0.0 **** 0.0
25141 C11 81.6663 13.7453 19.1287 C 0.0 **** 0.0
25142 C12 80.4429 14.1678 19.6847 C 0.0 **** 0.0
25143 C13 79.2758 13.3809 19.5677 C 0.0 **** 0.0
25144 C14 77.9552 13.8944 20.1143 C 0.0 **** 0.0
25145 C15 77.9276 15.4308 20.3205 C 0.0 **** 0.0
25146 C16 79.1591 15.9653 21.0493 C 0.0 **** 0.0
25147 C17 80.455 15.4768 20.4391 C 0.0 **** 0.0
25148 C18 81.7108 15.9912 20.8583 C 0.0 **** 0.0
25149 C19 82.906 15.5062 20.2791 C 0.0 **** 0.0
25150 C20 82.8228 14.5502 19.2845 C 0.0 **** 0.0
25151 C21 83.8273 14.3123 18.3319 C 0.0 **** 0.0
25152 C22 83.9333 13.0995 17.5922 C 0.0 **** 0.0
25153 C23 82.9188 12.135 17.6789 C 0.0 **** 0.0
25154 C24 84.2712 15.6984 20.9965 C 0.0 **** 0.0
25155 C25 84.2874 16.6332 22.1985 C 0.0 **** 0.0
25156 C26 83.1176 17.3096 22.5961 C 0.0 **** 0.0
25157 C27 81.7848 17.0884 21.8928 C 0.0 **** 0.0
25158 C28 83.2143 18.2884 23.6464 C 0.0 **** 0.0
25159 C29 84.4752 18.6919 24.1346 C 0.0 **** 0.0
25160 C30 85.6194 18.0761 23.6776 C 0.0 **** 0.0
25161 C31 85.5516 17.0408 22.7391 C 0.0 **** 0.0
25162 C32 86.9187 18.6002 24.1416 C 0.0 **** 0.0
25163 C33 87.0208 19.8822 24.9538 C 0.0 **** 0.0
25164 C34 85.7368 20.6869 24.9797 C 0.0 **** 0.0
25165 C35 84.5413 19.7574 25.2067 C 0.0 **** 0.0
25166 C36 86.7655 16.3911 22.4121 C 0.0 **** 0.0
25167 C37 87.9904 16.9249 22.7981 C 0.0 **** 0.0
25168 C38 88.0588 18.0247 23.6831 C 0.0 **** 0.0
25169 C39 85.1214 13.158 16.6668 C 0.0 **** 0.0
25170 C40 85.5748 14.559 16.8805 C 0.0 **** 0.0
25171 C41 84.7115 15.2009 17.7611 C 0.0 **** 0.0
25172 C42 84.666 16.6013 17.8983 C 0.0 **** 0.0
25173 C43 85.6675 17.3387 17.2818 C 0.0 **** 0.0
25174 C44 86.6492 16.6884 16.4593 C 0.0 **** 0.0
25175 C45 86.5451 15.3472 16.1642 C 0.0 **** 0.0
25176 C46 87.4124 14.7782 15.2271 C 0.0 **** 0.0
25177 C47 88.5455 15.4525 14.7238 C 0.0 **** 0.0
25178 C48 88.6813 16.804 15.0478 C 0.0 **** 0.0
25179 C49 87.7194 17.4636 15.8537 C 0.0 **** 0.0
25180 C50 87.754 18.8638 16.0458 C 0.0 **** 0.0
25181 C51 86.8048 19.4613 16.8988 C 0.0 **** 0.0
25182 C52 85.7837 18.707 17.4814 C 0.0 **** 0.0
25183 O53 76.2205 7.62694 17.7124 O 0.0 **** 0.0
25184 C54 74.9374 9.6407 19.2314 C 0.0 **** 0.0
25185 O55 82.9374 11.0229 16.8363 O 0.0 **** 0.0
25186 C56 89.5753 14.7591 13.8329 C 0.0 **** 0.0
25187 C57 89.4489 13.2602 13.7844 C 0.0 **** 0.0
25188 O58 89.1088 16.3772 22.2194 O 0.0 **** 0.0
25189 O59 82.1094 18.9456 24.1861 O 0.0 **** 0.0
25190 O60 88.567 19.7052 15.3295 O 0.0 **** 0.0
25191 H61 78.7542 8.16152 16.9698 H 0.0 **** 0.0
25192 H62 76.6971 11.6182 19.8557 H 0.0 **** 0.0
25193 H63 80.551 10.6093 16.4575 H 0.0 **** 0.0
25194 H64 80.979 9.61719 17.9833 H 0.0 **** 0.0
25195 H65 77.2063 13.6366 19.3374 H 0.0 **** 0.0
25196 H66 77.767 13.3232 21.0198 H 0.0 **** 0.0
25197 H67 77.8708 15.9311 19.344 H 0.0 **** 0.0
25198 H68 77.0456 15.6217 20.9435 H 0.0 **** 0.0
25199 H69 79.1861 17.0749 20.9644 H 0.0 **** 0.0
25200 H70 79.1756 15.6605 22.1096 H 0.0 **** 0.0
25201 H71 84.6546 14.7238 21.3316 H 0.0 **** 0.0
25202 H72 80.9725 16.9009 22.6569 H 0.0 **** 0.0
25203 H73 87.2385 19.5901 26.0177 H 0.0 **** 0.0
25204 H74 87.8565 20.5338 24.5299 H 0.0 **** 0.0
25205 H75 85.7289 21.4133 25.8623 H 0.0 **** 0.0
25206 H76 85.6267 21.2944 24.0579 H 0.0 **** 0.0
25207 H77 84.62 19.3069 26.1837 H 0.0 **** 0.0
25208 H78 83.6564 20.43 25.2209 H 0.0 **** 0.0
25209 H79 86.7028 15.3844 21.928 H 0.0 **** 0.0
25210 H80 88.9926 18.4004 24.0327 H 0.0 **** 0.0
25211 H81 85.8705 12.3954 16.9942 H 0.0 **** 0.0
25212 H82 84.853 13.0352 15.6047 H 0.0 **** 0.0
25213 H83 83.8887 17.063 18.4922 H 0.0 **** 0.0
25214 H84 87.2158 13.7359 14.9609 H 0.0 **** 0.0
25215 H85 89.6053 17.2943 14.718 H 0.0 **** 0.0
25216 H86 86.8001 20.5285 17.0457 H 0.0 **** 0.0
25217 H87 84.9878 19.2398 17.9852 H 0.0 **** 0.0
25218 H88 76.7196 6.91883 17.1819 H 0.0 **** 0.0
25219 H89 74.6985 10.4033 19.9916 H 0.0 **** 0.0
25220 H90 74.8027 8.63242 19.6778 H 0.0 **** 0.0
25221 H91 74.1904 9.7177 18.404 H 0.0 **** 0.0
25222 H92 83.8285 10.8653 16.3981 H 0.0 **** 0.0
25223 H93 89.4794 15.1837 12.7892 H 0.0 **** 0.0
25224 H94 90.3898 12.9639 13.3712 H 0.0 **** 0.0
25225 H95 88.6541 12.8892 13.1371 H 0.0 **** 0.0
25226 H96 89.4233 12.8021 14.7898 H 0.0 **** 0.0
25227 H97 89.9709 16.8248 22.5209 H 0.0 **** 0.0
25228 H98 81.2319 18.7455 23.7165 H 0.0 **** 0.0
25229 H99 89.0137 19.2645 14.5553 H 0.0 **** 0.0
25230 H100 85.0283 15.9633 20.2596 H 0.0 **** 0.0
25231 H101 81.5354 17.9945 21.3604 H 0.0 **** 0.0
25232 H102 90.5869 15.0608 14.2287 H 0.0 **** 0.0
25233 C1 52.1696 20.3909 62.2632 C 0.0 **** 0.0
25234 C2 52.7713 21.5579 61.7337 C 0.0 **** 0.0
25235 C3 51.979 22.5398 61.1416 C 0.0 **** 0.0
25236 C4 50.6034 22.4469 61.1327 C 0.0 **** 0.0
25237 C5 49.9881 21.4332 61.8642 C 0.0 **** 0.0
25238 C6 50.7515 20.3521 62.3263 C 0.0 **** 0.0
25239 C7 50.0546 23.6163 60.4521 C 0.0 **** 0.0
25240 C8 51.1323 24.4428 60.1427 C 0.0 **** 0.0
25241 C9 52.425 23.8203 60.5594 C 0.0 **** 0.0
25242 C10 50.9434 25.7837 59.7041 C 0.0 **** 0.0
25243 C11 49.5971 26.287 59.6663 C 0.0 **** 0.0
25244 C12 48.5078 25.4309 59.9939 C 0.0 **** 0.0
25245 C13 48.7283 24.0699 60.3004 C 0.0 **** 0.0
25246 C14 47.5622 23.1474 60.5541 C 0.0 **** 0.0
25247 C15 46.2937 23.6328 59.853 C 0.0 **** 0.0
25248 C16 45.9176 25.1382 60.0263 C 0.0 **** 0.0
25249 C17 47.1385 26.0493 60.0138 C 0.0 **** 0.0
25250 C18 47.0014 27.4575 60.0631 C 0.0 **** 0.0
25251 C19 48.1365 28.2345 59.8127 C 0.0 **** 0.0
25252 C20 49.3216 27.6262 59.3221 C 0.0 **** 0.0
25253 C21 50.3723 28.3118 58.6696 C 0.0 **** 0.0
25254 C22 51.6854 27.8926 58.7451 C 0.0 **** 0.0
25255 C23 52.0103 26.6452 59.3064 C 0.0 **** 0.0
25256 C24 48.1445 29.7167 60.2563 C 0.0 **** 0.0
25257 C25 46.7631 30.3701 60.4426 C 0.0 **** 0.0
25258 C26 45.6037 29.6006 60.4997 C 0.0 **** 0.0
25259 C27 45.6636 28.0579 60.3759 C 0.0 **** 0.0
25260 C28 44.3199 30.2336 60.6352 C 0.0 **** 0.0
25261 C29 44.1774 31.6393 60.7522 C 0.0 **** 0.0
25262 C30 45.3714 32.4331 60.7153 C 0.0 **** 0.0
25263 C31 46.6448 31.818 60.5914 C 0.0 **** 0.0
25264 C32 45.3332 33.9335 60.7313 C 0.0 **** 0.0
25265 C33 43.9984 34.5971 60.8026 C 0.0 **** 0.0
25266 C34 42.8964 33.7493 60.2108 C 0.0 **** 0.0
25267 C35 42.8347 32.3617 60.9339 C 0.0 **** 0.0
25268 C36 47.8045 32.6412 60.7721 C 0.0 **** 0.0
25269 C37 47.7472 34.0403 60.8378 C 0.0 **** 0.0
25270 C38 46.5114 34.7196 60.7926 C 0.0 **** 0.0
25271 C39 52.5147 28.8412 57.9692 C 0.0 **** 0.0
25272 C40 51.447 29.5056 57.1693 C 0.0 **** 0.0
25273 C41 50.2252 29.2042 57.6357 C 0.0 **** 0.0
25274 C42 49.0396 29.5551 56.9404 C 0.0 **** 0.0
25275 C43 49.1206 30.3593 55.8167 C 0.0 **** 0.0
25276 C44 50.4055 30.6643 55.2741 C 0.0 **** 0.0
25277 C45 51.6057 30.2205 55.9611 C 0.0 **** 0.0
25278 C46 52.8658 30.4742 55.4303 C 0.0 **** 0.0
25279 C47 53.0198 31.0646 54.1531 C 0.0 **** 0.0
25280 C48 51.8478 31.535 53.4978 C 0.0 **** 0.0
25281 C49 50.5542 31.3056 54.0416 C 0.0 **** 0.0
25282 C50 49.3288 31.6991 53.3709 C 0.0 **** 0.0
25283 C51 48.0879 31.5028 54.006 C 0.0 **** 0.0
25284 C52 47.9773 30.7975 55.1671 C 0.0 **** 0.0
25285 O53 52.908 19.4609 62.9387 O 0.0 **** 0.0
25286 C54 49.994 19.173 62.8995 C 0.0 **** 0.0
25287 O55 53.3163 26.1784 59.2701 O 0.0 **** 0.0
25288 C56 54.387 31.1528 53.5225 C 0.0 **** 0.0
25289 C57 54.9081 29.7649 53.1071 C 0.0 **** 0.0
25290 O58 48.9102 34.7835 61.0205 O 0.0 **** 0.0
25291 O59 43.1089 29.4512 60.6486 O 0.0 **** 0.0
25292 O60 49.2992 32.3103 52.089 O 0.0 **** 0.0
25293 H61 53.8216 21.6803 61.8461 H 0.0 **** 0.0
25294 H62 48.8939 21.3873 61.9463 H 0.0 **** 0.0
25295 H63 53.1197 23.6558 59.6988 H 0.0 **** 0.0
25296 H64 52.8785 24.4004 61.3725 H 0.0 **** 0.0
25297 H65 47.748 22.1298 60.1532 H 0.0 **** 0.0
25298 H66 47.4409 23.1285 61.6822 H 0.0 **** 0.0
25299 H67 46.3499 23.4053 58.7832 H 0.0 **** 0.0
25300 H68 45.5038 23.029 60.2016 H 0.0 **** 0.0
25301 H69 45.2614 25.4747 59.2348 H 0.0 **** 0.0
25302 H70 45.3811 25.2237 61.0179 H 0.0 **** 0.0
25303 H71 48.7787 29.8448 61.1633 H 0.0 **** 0.0
25304 H72 45.2434 27.565 61.2733 H 0.0 **** 0.0
25305 H73 43.8239 34.7806 61.8719 H 0.0 **** 0.0
25306 H74 44.0743 35.6205 60.3047 H 0.0 **** 0.0
25307 H75 41.8671 34.2266 60.2893 H 0.0 **** 0.0
25308 H76 43.0931 33.5337 59.13 H 0.0 **** 0.0
25309 H77 42.6925 32.6176 61.9908 H 0.0 **** 0.0
25310 H78 41.9887 31.7187 60.5849 H 0.0 **** 0.0
25311 H79 48.7134 32.1916 60.8769 H 0.0 **** 0.0
25312 H80 46.526 35.7773 60.6464 H 0.0 **** 0.0
25313 H81 53.1319 29.5521 58.6189 H 0.0 **** 0.0
25314 H82 53.1962 28.295 57.3189 H 0.0 **** 0.0
25315 H83 48.0811 29.2814 57.3036 H 0.0 **** 0.0
25316 H84 53.7752 30.052 55.9165 H 0.0 **** 0.0
25317 H85 52.0449 32.1133 52.5673 H 0.0 **** 0.0
25318 H86 47.1824 31.8205 53.4476 H 0.0 **** 0.0
25319 H87 47.0298 30.6604 55.6473 H 0.0 **** 0.0
25320 H88 53.9219 19.4281 62.7127 H 0.0 **** 0.0
25321 H89 50.5629 18.7357 63.7351 H 0.0 **** 0.0
25322 H90 49.8628 18.4188 62.1458 H 0.0 **** 0.0
25323 H91 49.0356 19.5014 63.2718 H 0.0 **** 0.0
25324 H92 53.9809 26.9349 59.0403 H 0.0 **** 0.0
25325 H93 54.3036 31.8496 52.6313 H 0.0 **** 0.0
25326 H94 55.0161 29.0679 53.9746 H 0.0 **** 0.0
25327 H95 55.9416 29.9294 52.6937 H 0.0 **** 0.0
25328 H96 54.3169 29.3082 52.273 H 0.0 **** 0.0
25329 H97 49.7574 34.2261 60.8788 H 0.0 **** 0.0
25330 H98 43.1849 28.4419 60.6778 H 0.0 **** 0.0
25331 H99 50.1658 32.6591 51.7145 H 0.0 **** 0.0
25332 H100 48.6697 30.3182 59.5041 H 0.0 **** 0.0
25333 H101 44.9713 27.7834 59.5386 H 0.0 **** 0.0
25334 H102 55.1268 31.5823 54.1999 H 0.0 **** 0.0
25335 C1 45.4854 54.971 70.8959 C 0.0 **** 0.0
25336 C2 46.6154 55.8002 70.9433 C 0.0 **** 0.0
25337 C3 47.5018 55.6739 72.0172 C 0.0 **** 0.0
25338 C4 47.2726 54.7674 73.0592 C 0.0 **** 0.0
25339 C5 46.19 53.8996 73.0007 C 0.0 **** 0.0
25340 C6 45.3019 53.995 71.9207 C 0.0 **** 0.0
25341 C7 48.074 55.1369 74.2268 C 0.0 **** 0.0
25342 C8 48.9011 56.1691 73.8689 C 0.0 **** 0.0
25343 C9 48.5889 56.626 72.4375 C 0.0 **** 0.0
25344 C10 49.8355 56.7114 74.7736 C 0.0 **** 0.0
25345 C11 50.0082 56.1007 76.0594 C 0.0 **** 0.0
25346 C12 49.1999 55.0006 76.3771 C 0.0 **** 0.0
25347 C13 48.124 54.569 75.5217 C 0.0 **** 0.0
25348 C14 47.1391 53.5505 76.0203 C 0.0 **** 0.0
25349 C15 47.1232 53.3632 77.5333 C 0.0 **** 0.0
25350 C16 48.5591 53.2059 78.0936 C 0.0 **** 0.0
25351 C17 49.5106 54.2589 77.6307 C 0.0 **** 0.0
25352 C18 50.6854 54.5437 78.3691 C 0.0 **** 0.0
25353 C19 51.4246 55.6957 78.0501 C 0.0 **** 0.0
25354 C20 50.9258 56.5669 77.0243 C 0.0 **** 0.0
25355 C21 51.4086 57.8531 76.7862 C 0.0 **** 0.0
25356 C22 51.3732 58.392 75.5156 C 0.0 **** 0.0
25357 C23 50.7071 57.777 74.4473 C 0.0 **** 0.0
25358 C24 52.8475 55.786 78.5042 C 0.0 **** 0.0
25359 C25 53.3818 54.5957 79.3246 C 0.0 **** 0.0
25360 C26 52.5153 53.6396 79.8266 C 0.0 **** 0.0
25361 C27 51.0815 53.6468 79.4785 C 0.0 **** 0.0
25362 C28 53.0385 52.5124 80.5534 C 0.0 **** 0.0
25363 C29 54.4103 52.3904 80.7055 C 0.0 **** 0.0
25364 C30 55.279 53.3088 80.1325 C 0.0 **** 0.0
25365 C31 54.7755 54.475 79.5393 C 0.0 **** 0.0
25366 C32 56.7493 53.1657 80.2871 C 0.0 **** 0.0
25367 C33 57.2778 51.8041 80.6087 C 0.0 **** 0.0
25368 C34 56.3746 51.1055 81.6617 C 0.0 **** 0.0
25369 C35 54.8966 51.0977 81.2734 C 0.0 **** 0.0
25370 C36 55.7036 55.4695 79.1752 C 0.0 **** 0.0
25371 C37 57.0868 55.3874 79.3668 C 0.0 **** 0.0
25372 C38 57.5941 54.233 79.9412 C 0.0 **** 0.0
25373 C39 51.8169 59.8087 75.5617 C 0.0 **** 0.0
25374 C40 51.9558 60.0278 77.0194 C 0.0 **** 0.0
25375 C41 51.7324 58.8578 77.6867 C 0.0 **** 0.0
25376 C42 51.5413 58.8868 79.0807 C 0.0 **** 0.0
25377 C43 51.6477 60.1072 79.7746 C 0.0 **** 0.0
25378 C44 52.0067 61.3092 79.0765 C 0.0 **** 0.0
25379 C45 52.1846 61.2578 77.6712 C 0.0 **** 0.0
25380 C46 52.2451 62.4822 76.9567 C 0.0 **** 0.0
25381 C47 52.2323 63.6806 77.6557 C 0.0 **** 0.0
25382 C48 52.1666 63.7409 79.035 C 0.0 **** 0.0
25383 C49 52.0333 62.5641 79.785 C 0.0 **** 0.0
25384 C50 51.7465 62.5676 81.1954 C 0.0 **** 0.0
25385 C51 51.4022 61.3526 81.8231 C 0.0 **** 0.0
25386 C52 51.2744 60.1575 81.1412 C 0.0 **** 0.0
25387 O53 44.4593 55.215 69.9692 O 0.0 **** 0.0
25388 C54 44.0995 53.0803 71.9589 C 0.0 **** 0.0
25389 O55 50.7863 58.2557 73.1368 O 0.0 **** 0.0
25390 C56 52.1987 64.9925 76.9066 C 0.0 **** 0.0
25391 C57 50.8578 65.7396 77.1937 C 0.0 **** 0.0
25392 O58 57.9662 56.4086 79.0771 O 0.0 **** 0.0
25393 O59 52.2301 51.4978 81.1008 O 0.0 **** 0.0
25394 O60 51.715 63.7303 81.9877 O 0.0 **** 0.0
25395 H61 46.8015 56.6212 70.2407 H 0.0 **** 0.0
25396 H62 45.8947 53.2051 73.8282 H 0.0 **** 0.0
25397 H63 48.2393 57.7191 72.4581 H 0.0 **** 0.0
25398 H64 49.4528 56.5113 71.7583 H 0.0 **** 0.0
25399 H65 46.0847 53.8747 75.8 H 0.0 **** 0.0
25400 H66 47.3344 52.5927 75.5182 H 0.0 **** 0.0
25401 H67 46.6529 54.245 77.9883 H 0.0 **** 0.0
25402 H68 46.4438 52.5108 77.7905 H 0.0 **** 0.0
25403 H69 48.539 53.2393 79.1808 H 0.0 **** 0.0
25404 H70 48.9622 52.2457 77.7282 H 0.0 **** 0.0
25405 H71 53.4422 55.9031 77.5858 H 0.0 **** 0.0
25406 H72 50.8811 52.5761 79.1891 H 0.0 **** 0.0
25407 H73 57.2131 51.269 79.6493 H 0.0 **** 0.0
25408 H74 58.3096 51.7721 80.9038 H 0.0 **** 0.0
25409 H75 56.6519 50.0675 81.7798 H 0.0 **** 0.0
25410 H76 56.5198 51.57 82.635 H 0.0 **** 0.0
25411 H77 54.8338 50.32 80.4139 H 0.0 **** 0.0
25412 H78 54.3589 50.8144 82.2071 H 0.0 **** 0.0
25413 H79 55.4152 56.4168 78.7917 H 0.0 **** 0.0
25414 H80 58.6718 54.152 80.1358 H 0.0 **** 0.0
25415 H81 52.7666 59.9569 74.9636 H 0.0 **** 0.0
25416 H82 51.0913 60.5092 75.1511 H 0.0 **** 0.0
25417 H83 51.267 57.9808 79.661 H 0.0 **** 0.0
25418 H84 52.4302 62.5203 75.8911 H 0.0 **** 0.0
25419 H85 52.1391 64.7082 79.5253 H 0.0 **** 0.0
25420 H86 51.2415 61.2983 82.9025 H 0.0 **** 0.0
25421 H87 50.9579 59.2865 81.7078 H 0.0 **** 0.0
25422 H88 44.6204 55.9792 69.3131 H 0.0 **** 0.0
25423 H89 43.4838 53.5057 72.7774 H 0.0 **** 0.0
25424 H90 44.5055 52.074 72.2115 H 0.0 **** 0.0
25425 H91 43.5248 53.0544 71.018 H 0.0 **** 0.0
25426 H92 51.3113 59.1446 73.069 H 0.0 **** 0.0
25427 H93 53.0688 65.5734 77.2464 H 0.0 **** 0.0
25428 H94 50.9105 66.7034 76.6552 H 0.0 **** 0.0
25429 H95 50.8043 66.023 78.2663 H 0.0 **** 0.0
25430 H96 49.9766 65.1087 76.8977 H 0.0 **** 0.0
25431 H97 57.4921 57.2926 78.7905 H 0.0 **** 0.0
25432 H98 51.3134 51.8399 81.321 H 0.0 **** 0.0
25433 H99 52.4368 64.3983 81.6567 H 0.0 **** 0.0
25434 H100 53.0151 56.6378 79.1804 H 0.0 **** 0.0
25435 H101 50.3841 53.8856 80.3456 H 0.0 **** 0.0
25436 H102 52.3497 64.8936 75.8286 H 0.0 **** 0.0
25437 C1 59.2442 74.8898 37.7912 C 0.0 **** 0.0
25438 C2 58.5565 73.7081 37.6393 C 0.0 **** 0.0
25439 C3 57.1902 73.6706 37.9554 C 0.0 **** 0.0
25440 C4 56.5541 74.7717 38.4766 C 0.0 **** 0.0
25441 C5 57.2533 75.9636 38.7137 C 0.0 **** 0.0
25442 C6 58.5647 76.0461 38.2811 C 0.0 **** 0.0
25443 C7 55.1297 74.5795 38.441 C 0.0 **** 0.0
25444 C8 54.9107 73.2847 37.9264 C 0.0 **** 0.0
25445 C9 56.242 72.5709 37.6708 C 0.0 **** 0.0
25446 C10 53.6625 72.9147 37.4408 C 0.0 **** 0.0
25447 C11 52.6243 73.9052 37.317 C 0.0 **** 0.0
25448 C12 52.8335 75.2052 37.7886 C 0.0 **** 0.0
25449 C13 54.0863 75.5104 38.4318 C 0.0 **** 0.0
25450 C14 54.2667 76.91 38.9949 C 0.0 **** 0.0
25451 C15 52.9113 77.4652 39.4992 C 0.0 **** 0.0
25452 C16 51.9557 77.6025 38.3382 C 0.0 **** 0.0
25453 C17 51.7718 76.2554 37.6196 C 0.0 **** 0.0
25454 C18 50.7295 76.0279 36.6912 C 0.0 **** 0.0
25455 C19 50.6024 74.7084 36.167 C 0.0 **** 0.0
25456 C20 51.3919 73.6211 36.6365 C 0.0 **** 0.0
25457 C21 51.0539 72.2792 36.4037 C 0.0 **** 0.0
25458 C22 52.0495 71.2721 36.5867 C 0.0 **** 0.0
25459 C23 53.408 71.5879 36.9692 C 0.0 **** 0.0
25460 C24 50.1 74.7063 34.6899 C 0.0 **** 0.0
25461 C25 48.8061 75.4864 34.5155 C 0.0 **** 0.0
25462 C26 48.6622 76.6867 35.2424 C 0.0 **** 0.0
25463 C27 49.7091 77.0831 36.2924 C 0.0 **** 0.0
25464 C28 47.5228 77.5388 34.9716 C 0.0 **** 0.0
25465 C29 46.5852 77.1609 33.9791 C 0.0 **** 0.0
25466 C30 46.6922 75.9252 33.3351 C 0.0 **** 0.0
25467 C31 47.8109 75.0994 33.5752 C 0.0 **** 0.0
25468 C32 45.7604 75.5792 32.3027 C 0.0 **** 0.0
25469 C33 44.9434 76.6606 31.6864 C 0.0 **** 0.0
25470 C34 44.3002 77.4525 32.8106 C 0.0 **** 0.0
25471 C35 45.3912 78.0798 33.7412 C 0.0 **** 0.0
25472 C36 47.8733 73.8732 32.8909 C 0.0 **** 0.0
25473 C37 46.8155 73.4586 32.0479 C 0.0 **** 0.0
25474 C38 45.8004 74.3288 31.711 C 0.0 **** 0.0
25475 C39 51.4561 69.9159 36.3043 C 0.0 **** 0.0
25476 C40 50.0503 70.3034 35.8933 C 0.0 **** 0.0
25477 C41 49.8417 71.662 36.0609 C 0.0 **** 0.0
25478 C42 48.5403 72.1937 35.9142 C 0.0 **** 0.0
25479 C43 47.4991 71.3773 35.4699 C 0.0 **** 0.0
25480 C44 47.702 69.9766 35.2364 C 0.0 **** 0.0
25481 C45 49.0011 69.4381 35.4574 C 0.0 **** 0.0
25482 C46 49.1969 68.083 35.2232 C 0.0 **** 0.0
25483 C47 48.1248 67.2351 34.9309 C 0.0 **** 0.0
25484 C48 46.8059 67.794 34.7345 C 0.0 **** 0.0
25485 C49 46.6238 69.1762 34.8128 C 0.0 **** 0.0
25486 C50 45.4095 69.8442 34.4786 C 0.0 **** 0.0
25487 C51 45.1989 71.2242 34.7557 C 0.0 **** 0.0
25488 C52 46.2496 71.9662 35.1769 C 0.0 **** 0.0
25489 O53 60.5964 74.9583 37.3942 O 0.0 **** 0.0
25490 C54 59.2807 77.3681 38.3819 C 0.0 **** 0.0
25491 O55 54.4306 70.6004 36.9416 O 0.0 **** 0.0
25492 C56 48.2918 65.7031 34.9903 C 0.0 **** 0.0
25493 C57 47.5428 65.1133 36.2255 C 0.0 **** 0.0
25494 O58 46.7286 72.1152 31.5548 O 0.0 **** 0.0
25495 O59 47.3238 78.7415 35.6638 O 0.0 **** 0.0
25496 O60 44.3712 69.1746 33.8008 O 0.0 **** 0.0
25497 H61 58.9953 72.8694 37.0382 H 0.0 **** 0.0
25498 H62 56.7438 76.877 38.9979 H 0.0 **** 0.0
25499 H63 56.3541 71.7649 38.4327 H 0.0 **** 0.0
25500 H64 56.3591 72.3228 36.613 H 0.0 **** 0.0
25501 H65 54.9011 76.8342 39.9192 H 0.0 **** 0.0
25502 H66 54.73 77.5761 38.2512 H 0.0 **** 0.0
25503 H67 52.4253 76.8792 40.3295 H 0.0 **** 0.0
25504 H68 53.0271 78.4633 39.9501 H 0.0 **** 0.0
25505 H69 51.0041 77.9328 38.7672 H 0.0 **** 0.0
25506 H70 52.3396 78.3331 37.5756 H 0.0 **** 0.0
25507 H71 50.8844 75.2953 34.1312 H 0.0 **** 0.0
25508 H72 50.284 77.9873 35.9453 H 0.0 **** 0.0
25509 H73 45.6332 77.4199 31.1256 H 0.0 **** 0.0
25510 H74 44.1869 76.2496 30.9449 H 0.0 **** 0.0
25511 H75 43.5484 78.1941 32.4056 H 0.0 **** 0.0
25512 H76 43.7112 76.7001 33.3812 H 0.0 **** 0.0
25513 H77 45.7886 79.004 33.2639 H 0.0 **** 0.0
25514 H78 44.8531 78.3358 34.7212 H 0.0 **** 0.0
25515 H79 48.6605 73.1051 33.0501 H 0.0 **** 0.0
25516 H80 45.0313 74.0197 31.0402 H 0.0 **** 0.0
25517 H81 51.9875 69.4 35.4922 H 0.0 **** 0.0
25518 H82 51.4248 69.2788 37.2022 H 0.0 **** 0.0
25519 H83 48.335 73.2445 36.1901 H 0.0 **** 0.0
25520 H84 50.1986 67.6485 35.2652 H 0.0 **** 0.0
25521 H85 45.9646 67.1603 34.4834 H 0.0 **** 0.0
25522 H86 44.3213 71.7706 34.4721 H 0.0 **** 0.0
25523 H87 46.1485 73.0574 35.2431 H 0.0 **** 0.0
25524 H88 60.8134 74.1802 36.8027 H 0.0 **** 0.0
25525 H89 60.3351 77.1991 38.3642 H 0.0 **** 0.0
25526 H90 59.0064 77.9047 39.2843 H 0.0 **** 0.0
25527 H91 59.0151 78.0251 37.5307 H 0.0 **** 0.0
25528 H92 54.1041 69.7129 36.6085 H 0.0 **** 0.0
25529 H93 47.9267 65.2499 34.0534 H 0.0 **** 0.0
25530 H94 47.8684 64.0591 36.3773 H 0.0 **** 0.0
25531 H95 46.411 65.1711 36.1145 H 0.0 **** 0.0
25532 H96 47.8322 65.6462 37.1663 H 0.0 **** 0.0
25533 H97 47.5258 71.558 31.7896 H 0.0 **** 0.0
25534 H98 48.0311 79.0465 36.2992 H 0.0 **** 0.0
25535 H99 44.2058 68.2528 34.201 H 0.0 **** 0.0
25536 H100 50.1185 73.6535 34.3163 H 0.0 **** 0.0
25537 H101 49.2461 77.3506 37.2913 H 0.0 **** 0.0
25538 H102 49.3872 65.4822 35.0123 H 0.0 **** 0.0
25539 C1 10.9724 36.7703 84.7588 C 0.0 **** 0.0
25540 C2 9.7843 36.3236 85.4198 C 0.0 **** 0.0
25541 C3 9.67271 36.5006 86.7599 C 0.0 **** 0.0
25542 C4 10.6797 37.0244 87.5604 C 0.0 **** 0.0
25543 C5 11.9148 37.3764 86.9661 C 0.0 **** 0.0
25544 C6 12.0249 37.3066 85.5382 C 0.0 **** 0.0
25545 C7 10.1629 37.1902 88.9835 C 0.0 **** 0.0
25546 C8 8.8104 36.8127 88.9084 C 0.0 **** 0.0
25547 C9 8.42548 36.3897 87.538 C 0.0 **** 0.0
25548 C10 7.948 36.9907 90.0053 C 0.0 **** 0.0
25549 C11 8.50301 37.5509 91.1919 C 0.0 **** 0.0
25550 C12 9.87077 37.9761 91.2495 C 0.0 **** 0.0
25551 C13 10.7371 37.7768 90.1287 C 0.0 **** 0.0
25552 C14 12.1746 38.2303 90.1644 C 0.0 **** 0.0
25553 C15 12.6745 38.4945 91.5499 C 0.0 **** 0.0
25554 C16 11.7393 39.2954 92.3906 C 0.0 **** 0.0
25555 C17 10.3623 38.6746 92.441 C 0.0 **** 0.0
25556 C18 9.39992 39.04 93.391 C 0.0 **** 0.0
25557 C19 8.04586 38.6721 93.2849 C 0.0 **** 0.0
25558 C20 7.66333 37.7619 92.3163 C 0.0 **** 0.0
25559 C21 6.35624 37.1271 92.3106 C 0.0 **** 0.0
25560 C22 5.80547 36.744 91.1256 C 0.0 **** 0.0
25561 C23 6.57687 36.6167 89.9764 C 0.0 **** 0.0
25562 C24 6.99817 39.5122 93.9676 C 0.0 **** 0.0
25563 C25 7.37918 40.9609 93.8841 C 0.0 **** 0.0
25564 C26 8.70776 41.267 94.1076 C 0.0 **** 0.0
25565 C27 9.66461 40.0935 94.4131 C 0.0 **** 0.0
25566 C28 9.18853 42.6401 94.001 C 0.0 **** 0.0
25567 C29 8.25071 43.639 93.6585 C 0.0 **** 0.0
25568 C30 6.92359 43.2688 93.3488 C 0.0 **** 0.0
25569 C31 6.44382 41.9784 93.557 C 0.0 **** 0.0
25570 C32 6.00874 44.3307 92.8498 C 0.0 **** 0.0
25571 C33 6.56537 45.6769 92.444 C 0.0 **** 0.0
25572 C34 7.72705 46.0895 93.3253 C 0.0 **** 0.0
25573 C35 8.78771 45.026 93.3501 C 0.0 **** 0.0
25574 C36 5.0499 41.7892 93.5251 C 0.0 **** 0.0
25575 C37 4.13104 42.7996 93.0848 C 0.0 **** 0.0
25576 C38 4.62364 44.0891 92.7186 C 0.0 **** 0.0
25577 C39 4.41537 36.4278 91.3015 C 0.0 **** 0.0
25578 C40 4.21655 36.6353 92.7966 C 0.0 **** 0.0
25579 C41 5.43382 36.9361 93.3391 C 0.0 **** 0.0
25580 C42 5.58665 37.0236 94.7255 C 0.0 **** 0.0
25581 C43 4.45352 36.7885 95.558 C 0.0 **** 0.0
25582 C44 3.19344 36.4546 94.9294 C 0.0 **** 0.0
25583 C45 3.06515 36.4149 93.5505 C 0.0 **** 0.0
25584 C46 1.84354 36.1696 92.8944 C 0.0 **** 0.0
25585 C47 0.673549 36.1222 93.6699 C 0.0 **** 0.0
25586 C48 0.791168 36.1025 95.0667 C 0.0 **** 0.0
25587 C49 2.03841 36.2678 95.712 C 0.0 **** 0.0
25588 C50 2.19048 36.322 97.123 C 0.0 **** 0.0
25589 C51 3.41843 36.5603 97.7311 C 0.0 **** 0.0
25590 C52 4.5748 36.7419 96.9375 C 0.0 **** 0.0
25591 O53 10.9863 36.8621 83.3525 O 0.0 **** 0.0
25592 C54 13.2704 37.8431 84.8701 C 0.0 **** 0.0
25593 O55 5.99579 36.0671 88.8187 O 0.0 **** 0.0
25594 C56 -0.697241 35.9693 93.0484 C 0.0 **** 0.0
25595 C57 -1.62347 37.231 93.2686 C 0.0 **** 0.0
25596 O58 2.74989 42.5554 93.0773 O 0.0 **** 0.0
25597 O59 10.5147 43.0123 94.2097 O 0.0 **** 0.0
25598 O60 1.05431 36.438 97.9359 O 0.0 **** 0.0
25599 H61 8.91068 36.0712 84.8485 H 0.0 **** 0.0
25600 H62 12.7984 37.6352 87.5694 H 0.0 **** 0.0
25601 H63 8.10465 35.373 87.5873 H 0.0 **** 0.0
25602 H64 7.67527 37.0929 87.0442 H 0.0 **** 0.0
25603 H65 12.8137 37.419 89.7414 H 0.0 **** 0.0
25604 H66 12.2119 39.2466 89.5935 H 0.0 **** 0.0
25605 H67 12.7697 37.5093 92.073 H 0.0 **** 0.0
25606 H68 13.6966 38.8883 91.4973 H 0.0 **** 0.0
25607 H69 12.2147 39.3811 93.4203 H 0.0 **** 0.0
25608 H70 11.5984 40.2798 91.9141 H 0.0 **** 0.0
25609 H71 6.03133 39.3903 93.386 H 0.0 **** 0.0
25610 H72 10.7062 40.4163 94.4642 H 0.0 **** 0.0
25611 H73 6.91362 45.6239 91.4208 H 0.0 **** 0.0
25612 H74 5.84566 46.5238 92.6239 H 0.0 **** 0.0
25613 H75 8.16007 47.0472 92.9505 H 0.0 **** 0.0
25614 H76 7.34537 46.2742 94.4064 H 0.0 **** 0.0
25615 H77 9.29731 45.0527 92.3713 H 0.0 **** 0.0
25616 H78 9.55134 45.3216 94.129 H 0.0 **** 0.0
25617 H79 4.61218 40.8595 93.8379 H 0.0 **** 0.0
25618 H80 3.94536 44.8454 92.3372 H 0.0 **** 0.0
25619 H81 3.82292 37.1043 90.7097 H 0.0 **** 0.0
25620 H82 4.14525 35.401 91.1061 H 0.0 **** 0.0
25621 H83 6.58271 37.1264 95.1981 H 0.0 **** 0.0
25622 H84 1.77083 36.2501 91.7945 H 0.0 **** 0.0
25623 H85 -0.130478 35.9444 95.6242 H 0.0 **** 0.0
25624 H86 3.47422 36.5897 98.7927 H 0.0 **** 0.0
25625 H87 5.44601 37.0389 97.453 H 0.0 **** 0.0
25626 H88 10.1683 36.388 82.9131 H 0.0 **** 0.0
25627 H89 13.6399 37.0706 84.1951 H 0.0 **** 0.0
25628 H90 14.0828 38.0419 85.6119 H 0.0 **** 0.0
25629 H91 13.0211 38.7733 84.3457 H 0.0 **** 0.0
25630 H92 5.0379 35.7745 88.8695 H 0.0 **** 0.0
25631 H93 -0.546913 35.8056 91.9279 H 0.0 **** 0.0
25632 H94 -2.55361 37.0454 92.6534 H 0.0 **** 0.0
25633 H95 -1.1855 38.1893 92.91 H 0.0 **** 0.0
25634 H96 -1.86144 37.2925 94.3473 H 0.0 **** 0.0
25635 H97 2.19208 43.3985 92.9407 H 0.0 **** 0.0
25636 H98 10.994 42.3832 94.805 H 0.0 **** 0.0
25637 H99 0.33101 35.7449 97.726 H 0.0 **** 0.0
25638 H100 6.79685 39.3076 95.027 H 0.0 **** 0.0
25639 H101 9.41918 39.7348 95.4557 H 0.0 **** 0.0
25640 H102 -1.16848 35.0318 93.4184 H 0.0 **** 0.0
25641 C1 17.834 33.0215 49.4604 C 0.0 **** 0.0
25642 C2 19.1648 32.6569 49.7577 C 0.0 **** 0.0
25643 C3 19.4619 31.3311 50.153 C 0.0 **** 0.0
25644 C4 18.5034 30.3707 50.2738 C 0.0 **** 0.0
25645 C5 17.1842 30.7038 49.9784 C 0.0 **** 0.0
25646 C6 16.8326 32.0177 49.5436 C 0.0 **** 0.0
25647 C7 19.1201 29.1128 50.7711 C 0.0 **** 0.0
25648 C8 20.4744 29.3866 50.9481 C 0.0 **** 0.0
25649 C9 20.8037 30.8178 50.57 C 0.0 **** 0.0
25650 C10 21.3549 28.4817 51.5873 C 0.0 **** 0.0
25651 C11 20.7587 27.2918 52.0747 C 0.0 **** 0.0
25652 C12 19.3613 27.0086 51.8821 C 0.0 **** 0.0
25653 C13 18.5247 27.8919 51.1855 C 0.0 **** 0.0
25654 C14 17.0506 27.623 51.0256 C 0.0 **** 0.0
25655 C15 16.6067 26.2767 51.6349 C 0.0 **** 0.0
25656 C16 17.352 25.8986 52.9646 C 0.0 **** 0.0
25657 C17 18.8103 25.8334 52.6176 C 0.0 **** 0.0
25658 C18 19.679 24.7475 52.8975 C 0.0 **** 0.0
25659 C19 21.0565 25.0232 52.9641 C 0.0 **** 0.0
25660 C20 21.5354 26.3562 52.8049 C 0.0 **** 0.0
25661 C21 22.8135 26.7795 53.2258 C 0.0 **** 0.0
25662 C22 23.4122 27.9004 52.7048 C 0.0 **** 0.0
25663 C23 22.7235 28.7404 51.7866 C 0.0 **** 0.0
25664 C24 21.9751 23.854 53.1099 C 0.0 **** 0.0
25665 C25 21.6136 22.6989 52.2403 C 0.0 **** 0.0
25666 C26 20.2344 22.3997 52.0733 C 0.0 **** 0.0
25667 C27 19.2074 23.3188 52.7041 C 0.0 **** 0.0
25668 C28 19.8262 21.2159 51.3561 C 0.0 **** 0.0
25669 C29 20.809 20.4662 50.7 C 0.0 **** 0.0
25670 C30 22.2098 20.7782 50.816 C 0.0 **** 0.0
25671 C31 22.5961 21.8349 51.6842 C 0.0 **** 0.0
25672 C32 23.2325 20.0067 50.1017 C 0.0 **** 0.0
25673 C33 22.8275 18.9617 49.1039 C 0.0 **** 0.0
25674 C34 21.4565 18.341 49.4707 C 0.0 **** 0.0
25675 C35 20.3978 19.4385 49.6766 C 0.0 **** 0.0
25676 C36 23.9956 21.9399 51.9662 C 0.0 **** 0.0
25677 C37 24.9926 21.1157 51.3333 C 0.0 **** 0.0
25678 C38 24.5677 20.1653 50.4088 C 0.0 **** 0.0
25679 C39 24.7511 28.1414 53.2861 C 0.0 **** 0.0
25680 C40 24.7547 27.1136 54.3503 C 0.0 **** 0.0
25681 C41 23.5867 26.3745 54.3239 C 0.0 **** 0.0
25682 C42 23.3065 25.4763 55.3837 C 0.0 **** 0.0
25683 C43 24.343 25.1026 56.2579 C 0.0 **** 0.0
25684 C44 25.5847 25.7464 56.204 C 0.0 **** 0.0
25685 C45 25.8219 26.7218 55.2024 C 0.0 **** 0.0
25686 C46 27.037 27.394 55.2128 C 0.0 **** 0.0
25687 C47 28.0526 27.0034 56.1083 C 0.0 **** 0.0
25688 C48 27.8356 26.0492 57.1095 C 0.0 **** 0.0
25689 C49 26.6109 25.3775 57.1819 C 0.0 **** 0.0
25690 C50 26.2792 24.4373 58.2044 C 0.0 **** 0.0
25691 C51 25.071 23.8478 58.2415 C 0.0 **** 0.0
25692 C52 24.097 24.0854 57.233 C 0.0 **** 0.0
25693 O53 17.4927 34.3122 49.0478 O 0.0 **** 0.0
25694 C54 15.398 32.2891 49.2614 C 0.0 **** 0.0
25695 O55 23.349 29.8266 51.1477 O 0.0 **** 0.0
25696 C56 29.4498 27.5899 55.9583 C 0.0 **** 0.0
25697 C57 29.6136 28.8531 56.7866 C 0.0 **** 0.0
25698 O58 26.3402 21.094 51.7036 O 0.0 **** 0.0
25699 O59 18.4921 20.822 51.2286 O 0.0 **** 0.0
25700 O60 27.1705 23.9883 59.1892 O 0.0 **** 0.0
25701 H61 19.9587 33.3533 49.7474 H 0.0 **** 0.0
25702 H62 16.3448 29.9767 50.17 H 0.0 **** 0.0
25703 H63 21.1896 31.4532 51.3796 H 0.0 **** 0.0
25704 H64 21.417 30.8648 49.6616 H 0.0 **** 0.0
25705 H65 16.4978 28.3995 51.6044 H 0.0 **** 0.0
25706 H66 16.756 27.6907 49.9334 H 0.0 **** 0.0
25707 H67 15.5158 26.2598 51.7993 H 0.0 **** 0.0
25708 H68 16.81 25.4858 50.8702 H 0.0 **** 0.0
25709 H69 17.1274 26.6398 53.7616 H 0.0 **** 0.0
25710 H70 16.9988 24.8925 53.3072 H 0.0 **** 0.0
25711 H71 23.0124 24.1662 52.9597 H 0.0 **** 0.0
25712 H72 18.329 23.3998 52.0085 H 0.0 **** 0.0
25713 H73 22.6898 19.4437 48.1565 H 0.0 **** 0.0
25714 H74 23.5594 18.1414 48.9821 H 0.0 **** 0.0
25715 H75 21.135 17.6946 48.5868 H 0.0 **** 0.0
25716 H76 21.5194 17.6898 50.3126 H 0.0 **** 0.0
25717 H77 20.2609 20.0336 48.7491 H 0.0 **** 0.0
25718 H78 19.4566 18.9677 50.0553 H 0.0 **** 0.0
25719 H79 24.3742 22.6512 52.7218 H 0.0 **** 0.0
25720 H80 25.3093 19.5661 49.9708 H 0.0 **** 0.0
25721 H81 25.547 28.0092 52.4371 H 0.0 **** 0.0
25722 H82 24.7495 29.1214 53.8499 H 0.0 **** 0.0
25723 H83 22.3268 25.0099 55.484 H 0.0 **** 0.0
25724 H84 27.1606 28.2852 54.6011 H 0.0 **** 0.0
25725 H85 28.5874 25.8845 57.8256 H 0.0 **** 0.0
25726 H86 24.8371 23.1006 59.028 H 0.0 **** 0.0
25727 H87 23.1939 23.5822 57.2107 H 0.0 **** 0.0
25728 H88 18.2954 34.9738 49.0885 H 0.0 **** 0.0
25729 H89 14.8356 32.1398 50.2077 H 0.0 **** 0.0
25730 H90 15.0427 31.5976 48.482 H 0.0 **** 0.0
25731 H91 15.2378 33.333 48.918 H 0.0 **** 0.0
25732 H92 24.3373 29.8794 51.3395 H 0.0 **** 0.0
25733 H93 30.2385 26.8766 56.1327 H 0.0 **** 0.0
25734 H94 30.6697 29.3234 56.6083 H 0.0 **** 0.0
25735 H95 29.466 28.6403 57.8571 H 0.0 **** 0.0
25736 H96 28.7771 29.5347 56.5642 H 0.0 **** 0.0
25737 H97 26.5529 21.7997 52.4131 H 0.0 **** 0.0
25738 H98 17.8849 21.2058 51.9077 H 0.0 **** 0.0
25739 H99 28.1572 24.2442 59.0616 H 0.0 **** 0.0
25740 H100 21.8504 23.4515 54.1221 H 0.0 **** 0.0
25741 H101 18.8835 22.9497 53.7031 H 0.0 **** 0.0
25742 H102 29.6654 27.9852 54.8915 H 0.0 **** 0.0
25743 C1 74.1026 27.844 49.4625 C 0.0 **** 0.0
25744 C2 75.1652 27.0655 48.9565 C 0.0 **** 0.0
25745 C3 75.0152 25.6854 48.8993 C 0.0 **** 0.0
25746 C4 73.8362 25.0551 49.2845 C 0.0 **** 0.0
25747 C5 72.73 25.8365 49.6337 C 0.0 **** 0.0
25748 C6 72.9115 27.2151 49.9161 C 0.0 **** 0.0
25749 C7 74.0049 23.6233 48.9224 C 0.0 **** 0.0
25750 C8 75.2511 23.4395 48.3515 C 0.0 **** 0.0
25751 C9 75.997 24.7354 48.3246 C 0.0 **** 0.0
25752 C10 75.682 22.2361 47.79 C 0.0 **** 0.0
25753 C11 74.7875 21.1131 47.8399 C 0.0 **** 0.0
25754 C12 73.5425 21.2635 48.4803 C 0.0 **** 0.0
25755 C13 73.1299 22.5064 49.0406 C 0.0 **** 0.0
25756 C14 71.7726 22.7128 49.671 C 0.0 **** 0.0
25757 C15 71.0686 21.4046 50.0269 C 0.0 **** 0.0
25758 C16 71.2038 20.3557 48.8826 C 0.0 **** 0.0
25759 C17 72.6536 20.106 48.5296 C 0.0 **** 0.0
25760 C18 73.1706 18.8472 48.1517 C 0.0 **** 0.0
25761 C19 74.3673 18.7619 47.4178 C 0.0 **** 0.0
25762 C20 75.0675 19.9749 47.0711 C 0.0 **** 0.0
25763 C21 76.1406 20.0404 46.1597 C 0.0 **** 0.0
25764 C22 77.1041 21.0529 46.257 C 0.0 **** 0.0
25765 C23 76.9236 22.1071 47.1509 C 0.0 **** 0.0
25766 C24 75.0238 17.383 47.1764 C 0.0 **** 0.0
25767 C25 74.3218 16.1688 47.7551 C 0.0 **** 0.0
25768 C26 73.0861 16.2898 48.4458 C 0.0 **** 0.0
25769 C27 72.4417 17.632 48.6044 C 0.0 **** 0.0
25770 C28 72.4639 15.1564 48.9982 C 0.0 **** 0.0
25771 C29 73.1486 13.9221 48.977 C 0.0 **** 0.0
25772 C30 74.3139 13.7761 48.2635 C 0.0 **** 0.0
25773 C31 74.9347 14.8611 47.6685 C 0.0 **** 0.0
25774 C32 75.0403 12.4487 48.2644 C 0.0 **** 0.0
25775 C33 74.6569 11.3366 49.2406 C 0.0 **** 0.0
25776 C34 73.6988 11.8435 50.3266 C 0.0 **** 0.0
25777 C35 72.594 12.6602 49.6883 C 0.0 **** 0.0
25778 C36 76.1211 14.6372 46.8842 C 0.0 **** 0.0
25779 C37 76.6387 13.35 46.6791 C 0.0 **** 0.0
25780 C38 76.0309 12.2645 47.3346 C 0.0 **** 0.0
25781 C39 78.1144 20.9557 45.143 C 0.0 **** 0.0
25782 C40 77.3304 20.0234 44.1876 C 0.0 **** 0.0
25783 C41 76.21 19.5413 44.845 C 0.0 **** 0.0
25784 C42 75.184 18.9643 44.1359 C 0.0 **** 0.0
25785 C43 75.3123 18.7771 42.7568 C 0.0 **** 0.0
25786 C44 76.4746 19.2503 42.0604 C 0.0 **** 0.0
25787 C45 77.461 19.9575 42.779 C 0.0 **** 0.0
25788 C46 78.5576 20.502 42.1217 C 0.0 **** 0.0
25789 C47 78.6881 20.3313 40.7 C 0.0 **** 0.0
25790 C48 77.8102 19.5192 39.9949 C 0.0 **** 0.0
25791 C49 76.6536 18.9433 40.6576 C 0.0 **** 0.0
25792 C50 75.6816 18.1601 39.9886 C 0.0 **** 0.0
25793 C51 74.4936 17.8844 40.649 C 0.0 **** 0.0
25794 C52 74.3457 18.0697 41.9851 C 0.0 **** 0.0
25795 O53 74.2826 29.2343 49.5128 O 0.0 **** 0.0
25796 C54 71.8719 27.9431 50.6712 C 0.0 **** 0.0
25797 O55 77.9302 23.0837 47.2874 O 0.0 **** 0.0
25798 C56 79.8163 20.9994 39.9683 C 0.0 **** 0.0
25799 C57 79.6087 22.518 39.7715 C 0.0 **** 0.0
25800 O58 77.7771 13.1211 45.874 O 0.0 **** 0.0
25801 O59 71.2253 15.1891 49.668 O 0.0 **** 0.0
25802 O60 75.8518 17.8052 38.6308 O 0.0 **** 0.0
25803 H61 76.0717 27.5334 48.6718 H 0.0 **** 0.0
25804 H62 71.7951 25.3872 49.8779 H 0.0 **** 0.0
25805 H63 76.9045 24.7037 48.9826 H 0.0 **** 0.0
25806 H64 76.2174 25.0154 47.2767 H 0.0 **** 0.0
25807 H65 71.9162 23.24 50.6815 H 0.0 **** 0.0
25808 H66 71.1456 23.3827 48.969 H 0.0 **** 0.0
25809 H67 71.5673 20.9645 50.9428 H 0.0 **** 0.0
25810 H68 70.0246 21.5911 50.2685 H 0.0 **** 0.0
25811 H69 70.7272 19.4514 49.2498 H 0.0 **** 0.0
25812 H70 70.7095 20.7333 47.9006 H 0.0 **** 0.0
25813 H71 75.2249 17.1915 46.0885 H 0.0 **** 0.0
25814 H72 71.4732 17.5607 48.1147 H 0.0 **** 0.0
25815 H73 74.2472 10.4883 48.6622 H 0.0 **** 0.0
25816 H74 75.53 10.8879 49.7249 H 0.0 **** 0.0
25817 H75 73.2636 10.9395 50.8562 H 0.0 **** 0.0
25818 H76 74.257 12.4466 51.0842 H 0.0 **** 0.0
25819 H77 72.1388 12.0343 48.8933 H 0.0 **** 0.0
25820 H78 71.7849 12.8612 50.4472 H 0.0 **** 0.0
25821 H79 76.5933 15.4438 46.4245 H 0.0 **** 0.0
25822 H80 76.4919 11.2469 47.1984 H 0.0 **** 0.0
25823 H81 78.3455 21.9398 44.7046 H 0.0 **** 0.0
25824 H82 79.0208 20.4158 45.4157 H 0.0 **** 0.0
25825 H83 74.3031 18.6195 44.6262 H 0.0 **** 0.0
25826 H84 79.3258 21.017 42.6776 H 0.0 **** 0.0
25827 H85 77.8761 19.4757 38.9638 H 0.0 **** 0.0
25828 H86 73.7285 17.329 40.112 H 0.0 **** 0.0
25829 H87 73.4311 17.7565 42.4742 H 0.0 **** 0.0
25830 H88 75.1495 29.5716 49.1466 H 0.0 **** 0.0
25831 H89 70.9288 27.9561 50.0983 H 0.0 **** 0.0
25832 H90 72.1502 28.9979 50.8969 H 0.0 **** 0.0
25833 H91 71.6916 27.3806 51.576 H 0.0 **** 0.0
25834 H92 78.7722 22.9727 46.7328 H 0.0 **** 0.0
25835 H93 80.7951 20.7606 40.4815 H 0.0 **** 0.0
25836 H94 80.4718 22.9287 39.165 H 0.0 **** 0.0
25837 H95 79.7044 22.998 40.7878 H 0.0 **** 0.0
25838 H96 78.5813 22.708 39.2783 H 0.0 **** 0.0
25839 H97 78.1179 13.9794 45.4533 H 0.0 **** 0.0
25840 H98 70.6995 16.0469 49.6418 H 0.0 **** 0.0
25841 H99 76.8229 17.5726 38.389 H 0.0 **** 0.0
25842 H100 76.0064 17.4435 47.6998 H 0.0 **** 0.0
25843 H101 72.2997 17.7797 49.7075 H 0.0 **** 0.0
25844 H102 79.8509 20.5678 38.9558 H 0.0 **** 0.0
25845 C1 50.6713 81.5558 34.0675 C 0.0 **** 0.0
25846 C2 52.0222 81.6563 33.7092 C 0.0 **** 0.0
25847 C3 52.3486 82.2654 32.4975 C 0.0 **** 0.0
25848 C4 51.3492 82.5662 31.5685 C 0.0 **** 0.0
25849 C5 50.0178 82.4804 31.9124 C 0.0 **** 0.0
25850 C6 49.648 81.9904 33.1865 C 0.0 **** 0.0
25851 C7 52.0005 83.2745 30.4319 C 0.0 **** 0.0
25852 C8 53.3551 83.3474 30.6658 C 0.0 **** 0.0
25853 C9 53.7248 82.6844 31.9918 C 0.0 **** 0.0
25854 C10 54.2066 83.9531 29.6977 C 0.0 **** 0.0
25855 C11 53.6606 84.3921 28.4824 C 0.0 **** 0.0
25856 C12 52.2634 84.2887 28.2437 C 0.0 **** 0.0
25857 C13 51.423 83.6951 29.2156 C 0.0 **** 0.0
25858 C14 50.0225 83.4107 28.9044 C 0.0 **** 0.0
25859 C15 49.7109 83.3749 27.4288 C 0.0 **** 0.0
25860 C16 50.188 84.6787 26.7878 C 0.0 **** 0.0
25861 C17 51.7153 84.7508 26.9358 C 0.0 **** 0.0
25862 C18 52.5171 85.548 26.0833 C 0.0 **** 0.0
25863 C19 53.846 85.7487 26.4935 C 0.0 **** 0.0
25864 C20 54.4511 84.9523 27.4709 C 0.0 **** 0.0
25865 C21 55.8506 84.8356 27.6323 C 0.0 **** 0.0
25866 C22 56.4195 84.5104 28.8199 C 0.0 **** 0.0
25867 C23 55.6371 84.1032 29.9278 C 0.0 **** 0.0
25868 C24 54.4429 87.1121 26.1515 C 0.0 **** 0.0
25869 C25 54.3216 87.3756 24.6616 C 0.0 **** 0.0
25870 C26 53.1643 86.9007 24.0245 C 0.0 **** 0.0
25871 C27 52.0144 86.1988 24.8183 C 0.0 **** 0.0
25872 C28 52.9925 87.036 22.6498 C 0.0 **** 0.0
25873 C29 54.0025 87.6101 21.8531 C 0.0 **** 0.0
25874 C30 55.1249 88.1781 22.4935 C 0.0 **** 0.0
25875 C31 55.3273 88.0287 23.9017 C 0.0 **** 0.0
25876 C32 56.1138 88.8943 21.6691 C 0.0 **** 0.0
25877 C33 55.8834 89.1088 20.1944 C 0.0 **** 0.0
25878 C34 55.1765 87.9366 19.6023 C 0.0 **** 0.0
25879 C35 53.8717 87.5997 20.3345 C 0.0 **** 0.0
25880 C36 56.5919 88.4004 24.41 C 0.0 **** 0.0
25881 C37 57.6054 88.9269 23.5846 C 0.0 **** 0.0
25882 C38 57.3536 89.158 22.2418 C 0.0 **** 0.0
25883 C39 57.924 84.6346 28.6721 C 0.0 **** 0.0
25884 C40 58.0407 84.9775 27.199 C 0.0 **** 0.0
25885 C41 56.8035 84.9691 26.6163 C 0.0 **** 0.0
25886 C42 56.63 85.0437 25.2461 C 0.0 **** 0.0
25887 C43 57.7385 85.1042 24.3893 C 0.0 **** 0.0
25888 C44 59.0738 85.1281 24.9566 C 0.0 **** 0.0
25889 C45 59.2159 85.0665 26.3593 C 0.0 **** 0.0
25890 C46 60.5007 85.1431 26.8911 C 0.0 **** 0.0
25891 C47 61.6199 85.1167 26.0336 C 0.0 **** 0.0
25892 C48 61.488 85.0852 24.627 C 0.0 **** 0.0
25893 C49 60.205 85.1418 24.0684 C 0.0 **** 0.0
25894 C50 60.0018 85.1303 22.684 C 0.0 **** 0.0
25895 C51 58.7182 84.951 22.1632 C 0.0 **** 0.0
25896 C52 57.5937 84.9823 22.9962 C 0.0 **** 0.0
25897 O53 50.2997 81.1535 35.3723 O 0.0 **** 0.0
25898 C54 48.1909 81.9093 33.5633 C 0.0 **** 0.0
25899 O55 56.1884 83.7939 31.1743 O 0.0 **** 0.0
25900 C56 63.002 85.0049 26.6638 C 0.0 **** 0.0
25901 C57 63.8082 86.3179 26.4946 C 0.0 **** 0.0
25902 O58 58.893 89.1845 24.0971 O 0.0 **** 0.0
25903 O59 51.8461 86.5362 22.0457 O 0.0 **** 0.0
25904 O60 61.0371 85.1864 21.7677 O 0.0 **** 0.0
25905 H61 52.7915 81.3254 34.3553 H 0.0 **** 0.0
25906 H62 49.271 82.9509 31.2744 H 0.0 **** 0.0
25907 H63 54.3833 81.7716 31.8161 H 0.0 **** 0.0
25908 H64 54.1409 83.4885 32.6524 H 0.0 **** 0.0
25909 H65 49.751 82.4253 29.3191 H 0.0 **** 0.0
25910 H66 49.363 84.1491 29.3761 H 0.0 **** 0.0
25911 H67 50.2747 82.5416 26.9684 H 0.0 **** 0.0
25912 H68 48.5995 83.1865 27.3247 H 0.0 **** 0.0
25913 H69 49.9008 84.64 25.6849 H 0.0 **** 0.0
25914 H70 49.7238 85.5807 27.2223 H 0.0 **** 0.0
25915 H71 53.9305 87.9274 26.6481 H 0.0 **** 0.0
25916 H72 51.2277 86.9522 25.0414 H 0.0 **** 0.0
25917 H73 55.2873 90.0448 20.0869 H 0.0 **** 0.0
25918 H74 56.7947 89.3069 19.637 H 0.0 **** 0.0
25919 H75 54.9271 88.157 18.5309 H 0.0 **** 0.0
25920 H76 55.8484 87.0899 19.5391 H 0.0 **** 0.0
25921 H77 53.1615 88.3717 20.0861 H 0.0 **** 0.0
25922 H78 53.5592 86.5609 20.0752 H 0.0 **** 0.0
25923 H79 56.7571 88.3159 25.5096 H 0.0 **** 0.0
25924 H80 58.1728 89.5231 21.629 H 0.0 **** 0.0
25925 H81 58.3482 85.4517 29.3157 H 0.0 **** 0.0
25926 H82 58.3571 83.6434 28.8201 H 0.0 **** 0.0
25927 H83 55.6321 84.9907 24.8677 H 0.0 **** 0.0
25928 H84 60.6107 85.1806 27.9762 H 0.0 **** 0.0
25929 H85 62.3931 85.0638 24.0655 H 0.0 **** 0.0
25930 H86 58.5497 84.8303 21.0944 H 0.0 **** 0.0
25931 H87 56.619 84.9586 22.602 H 0.0 **** 0.0
25932 H88 51.1016 80.8504 35.9253 H 0.0 **** 0.0
25933 H89 47.9868 80.9133 33.9178 H 0.0 **** 0.0
25934 H90 47.5006 82.1482 32.671 H 0.0 **** 0.0
25935 H91 47.9295 82.613 34.3828 H 0.0 **** 0.0
25936 H92 57.1625 84.0706 31.3579 H 0.0 **** 0.0
25937 H93 62.9152 84.8022 27.7222 H 0.0 **** 0.0
25938 H94 64.8999 86.0149 26.6519 H 0.0 **** 0.0
25939 H95 63.4324 87.1075 27.1849 H 0.0 **** 0.0
25940 H96 63.6872 86.6643 25.4287 H 0.0 **** 0.0
25941 H97 58.9885 88.7856 25.0325 H 0.0 **** 0.0
25942 H98 51.6318 86.9415 21.1387 H 0.0 **** 0.0
25943 H99 61.9046 85.5617 22.0806 H 0.0 **** 0.0
25944 H100 55.4681 87.1275 26.476 H 0.0 **** 0.0
25945 H101 51.6298 85.3556 24.2307 H 0.0 **** 0.0
25946 H102 63.5536 84.139 26.1981 H 0.0 **** 0.0
25947 C1 53.3128 80.9727 102.457 C 0.0 **** 0.0
25948 C2 54.271 80.0162 102.791 C 0.0 **** 0.0
25949 C3 55.5943 80.3869 102.923 C 0.0 **** 0.0
25950 C4 56.0018 81.6989 102.624 C 0.0 **** 0.0
25951 C5 55.0535 82.7005 102.335 C 0.0 **** 0.0
25952 C6 53.71 82.3126 102.151 C 0.0 **** 0.0
25953 C7 57.3672 81.8471 103.082 C 0.0 **** 0.0
25954 C8 57.7753 80.6431 103.592 C 0.0 **** 0.0
25955 C9 56.7167 79.6038 103.503 C 0.0 **** 0.0
25956 C10 59.0341 80.5338 104.209 C 0.0 **** 0.0
25957 C11 59.7193 81.7083 104.586 C 0.0 **** 0.0
25958 C12 59.3155 82.9488 104.038 C 0.0 **** 0.0
25959 C13 58.1877 82.9879 103.177 C 0.0 **** 0.0
25960 C14 57.931 84.2721 102.434 C 0.0 **** 0.0
25961 C15 59.2153 85.1104 102.23 C 0.0 **** 0.0
25962 C16 59.9399 85.3976 103.552 C 0.0 **** 0.0
25963 C17 60.1075 84.1659 104.38 C 0.0 **** 0.0
25964 C18 60.9628 84.1479 105.524 C 0.0 **** 0.0
25965 C19 61.2092 82.8838 106.136 C 0.0 **** 0.0
25966 C20 60.7449 81.6699 105.55 C 0.0 **** 0.0
25967 C21 61.308 80.3902 105.813 C 0.0 **** 0.0
25968 C22 60.6619 79.2507 105.389 C 0.0 **** 0.0
25969 C23 59.5189 79.2901 104.608 C 0.0 **** 0.0
25970 C24 61.5851 82.9418 107.597 C 0.0 **** 0.0
25971 C25 62.7264 83.8692 107.887 C 0.0 **** 0.0
25972 C26 62.7911 85.0838 107.181 C 0.0 **** 0.0
25973 C27 61.7778 85.3665 106.025 C 0.0 **** 0.0
25974 C28 63.8076 86.0256 107.48 C 0.0 **** 0.0
25975 C29 64.8304 85.6844 108.411 C 0.0 **** 0.0
25976 C30 64.6931 84.4946 109.198 C 0.0 **** 0.0
25977 C31 63.5972 83.6559 109.0 C 0.0 **** 0.0
25978 C32 65.6365 84.2004 110.318 C 0.0 **** 0.0
25979 C33 66.7465 85.1852 110.632 C 0.0 **** 0.0
25980 C34 67.1584 85.9706 109.411 C 0.0 **** 0.0
25981 C35 65.9683 86.671 108.666 C 0.0 **** 0.0
25982 C36 63.4072 82.593 109.897 C 0.0 **** 0.0
25983 C37 64.2488 82.3852 111.002 C 0.0 **** 0.0
25984 C38 65.3435 83.192 111.219 C 0.0 **** 0.0
25985 C39 61.4609 78.0283 105.732 C 0.0 **** 0.0
25986 C40 62.6813 78.6437 106.336 C 0.0 **** 0.0
25987 C41 62.5524 80.0259 106.322 C 0.0 **** 0.0
25988 C42 63.6925 80.8112 106.549 C 0.0 **** 0.0
25989 C43 64.8682 80.2147 107.003 C 0.0 **** 0.0
25990 C44 64.9549 78.8057 107.087 C 0.0 **** 0.0
25991 C45 63.8724 78.0044 106.766 C 0.0 **** 0.0
25992 C46 63.9319 76.6246 106.865 C 0.0 **** 0.0
25993 C47 65.09 76.0274 107.407 C 0.0 **** 0.0
25994 C48 66.2083 76.809 107.687 C 0.0 **** 0.0
25995 C49 66.1603 78.1959 107.524 C 0.0 **** 0.0
25996 C50 67.2635 79.0109 107.757 C 0.0 **** 0.0
25997 C51 67.1544 80.4153 107.742 C 0.0 **** 0.0
25998 C52 65.9638 81.0131 107.334 C 0.0 **** 0.0
25999 O53 51.9845 80.5511 102.323 O 0.0 **** 0.0
26000 C54 52.6892 83.3666 101.606 C 0.0 **** 0.0
26001 O55 58.8097 78.0926 104.304 O 0.0 **** 0.0
26002 C56 65.0733 74.5602 107.597 C 0.0 **** 0.0
26003 C57 64.0958 74.1185 108.715 C 0.0 **** 0.0
26004 O58 63.968 81.3515 111.886 O 0.0 **** 0.0
26005 O59 63.8555 87.2599 106.777 O 0.0 **** 0.0
26006 O60 68.5333 78.4683 107.959 O 0.0 **** 0.0
26007 H61 53.9981 78.9775 103.005 H 0.0 **** 0.0
26008 H62 55.302 83.6931 102.218 H 0.0 **** 0.0
26009 H63 56.9619 78.7207 102.887 H 0.0 **** 0.0
26010 H64 56.4788 79.3381 104.574 H 0.0 **** 0.0
26011 H65 57.4631 84.0955 101.43 H 0.0 **** 0.0
26012 H66 57.2172 84.8276 102.997 H 0.0 **** 0.0
26013 H67 59.9132 84.5865 101.5 H 0.0 **** 0.0
26014 H68 58.932 86.0306 101.723 H 0.0 **** 0.0
26015 H69 60.9446 85.8118 103.297 H 0.0 **** 0.0
26016 H70 59.4091 86.1803 104.104 H 0.0 **** 0.0
26017 H71 60.7204 83.3436 108.19 H 0.0 **** 0.0
26018 H72 61.0261 86.1238 106.28 H 0.0 **** 0.0
26019 H73 66.3965 85.8629 111.454 H 0.0 **** 0.0
26020 H74 67.6604 84.6712 111.052 H 0.0 **** 0.0
26021 H75 67.8857 86.7511 109.745 H 0.0 **** 0.0
26022 H76 67.7061 85.2125 108.734 H 0.0 **** 0.0
26023 H77 65.5497 87.4783 109.297 H 0.0 **** 0.0
26024 H78 66.3868 87.0861 107.758 H 0.0 **** 0.0
26025 H79 62.518 81.9789 109.805 H 0.0 **** 0.0
26026 H80 65.983 83.0029 112.081 H 0.0 **** 0.0
26027 H81 60.8858 77.4118 106.417 H 0.0 **** 0.0
26028 H82 61.671 77.4829 104.778 H 0.0 **** 0.0
26029 H83 63.7346 81.8843 106.35 H 0.0 **** 0.0
26030 H84 63.0914 76.0356 106.531 H 0.0 **** 0.0
26031 H85 67.0995 76.3015 108.091 H 0.0 **** 0.0
26032 H86 67.9895 80.9934 107.997 H 0.0 **** 0.0
26033 H87 65.9299 82.0909 107.21 H 0.0 **** 0.0
26034 H88 51.8827 79.5562 102.44 H 0.0 **** 0.0
26035 H89 53.1081 83.9042 100.789 H 0.0 **** 0.0
26036 H90 52.5199 84.1348 102.352 H 0.0 **** 0.0
26037 H91 51.6968 83.0002 101.238 H 0.0 **** 0.0
26038 H92 59.0356 77.3035 104.915 H 0.0 **** 0.0
26039 H93 64.7826 74.0 106.657 H 0.0 **** 0.0
26040 H94 64.2413 73.026 108.944 H 0.0 **** 0.0
26041 H95 63.0875 74.3429 108.324 H 0.0 **** 0.0
26042 H96 64.3466 74.7301 109.601 H 0.0 **** 0.0
26043 H97 63.2779 80.6835 111.538 H 0.0 **** 0.0
26044 H98 62.9171 87.5328 106.396 H 0.0 **** 0.0
26045 H99 68.6502 77.5594 107.518 H 0.0 **** 0.0
26046 H100 61.7738 81.9315 107.924 H 0.0 **** 0.0
26047 H101 62.371 85.7039 105.144 H 0.0 **** 0.0
26048 H102 66.1066 74.1753 107.878 H 0.0 **** 0.0
26049 C1 94.2698 37.1783 91.8761 C 0.0 **** 0.0
26050 C2 95.6196 36.853 91.5487 C 0.0 **** 0.0
26051 C3 96.0336 35.5765 91.4427 C 0.0 **** 0.0
26052 C4 95.1264 34.5503 91.6064 C 0.0 **** 0.0
26053 C5 93.7704 34.8142 92.04 C 0.0 **** 0.0
26054 C6 93.3489 36.1407 92.1937 C 0.0 **** 0.0
26055 C7 95.8516 33.2807 91.4347 C 0.0 **** 0.0
26056 C8 97.193 33.5441 91.1189 C 0.0 **** 0.0
26057 C9 97.3674 35.0719 91.0965 C 0.0 **** 0.0
26058 C10 98.1274 32.5159 91.0202 C 0.0 **** 0.0
26059 C11 97.6614 31.1991 90.8399 C 0.0 **** 0.0
26060 C12 96.2601 30.9527 91.0028 C 0.0 **** 0.0
26061 C13 95.3581 31.9399 91.4592 C 0.0 **** 0.0
26062 C14 93.9322 31.6117 91.7832 C 0.0 **** 0.0
26063 C15 93.6138 30.1295 91.8583 C 0.0 **** 0.0
26064 C16 94.2363 29.3783 90.6872 C 0.0 **** 0.0
26065 C17 95.7109 29.6546 90.5799 C 0.0 **** 0.0
26066 C18 96.5542 28.8069 89.8636 C 0.0 **** 0.0
26067 C19 97.9554 28.9988 89.8788 C 0.0 **** 0.0
26068 C20 98.532 30.133 90.5466 C 0.0 **** 0.0
26069 C21 99.8964 30.3689 90.7845 C 0.0 **** 0.0
26070 C22 100.382 31.6828 90.9149 C 0.0 **** 0.0
26071 C23 99.5101 32.7702 90.983 C 0.0 **** 0.0
26072 C24 98.7283 28.1804 88.9083 C 0.0 **** 0.0
26073 C25 98.048 28.135 87.5676 C 0.0 **** 0.0
26074 C26 96.618 28.0059 87.5403 C 0.0 **** 0.0
26075 C27 96.005 27.7973 88.911 C 0.0 **** 0.0
26076 C28 95.8708 28.0581 86.3199 C 0.0 **** 0.0
26077 C29 96.518 28.1618 85.0928 C 0.0 **** 0.0
26078 C30 97.944 28.2175 85.0896 C 0.0 **** 0.0
26079 C31 98.717 28.2035 86.3265 C 0.0 **** 0.0
26080 C32 98.6473 28.3545 83.8175 C 0.0 **** 0.0
26081 C33 97.8936 28.3402 82.4758 C 0.0 **** 0.0
26082 C34 96.5792 27.7051 82.57 C 0.0 **** 0.0
26083 C35 95.7489 28.2229 83.7664 C 0.0 **** 0.0
26084 C36 100.09 28.4737 86.2243 C 0.0 **** 0.0
26085 C37 100.717 28.8235 84.9948 C 0.0 **** 0.0
26086 C38 100.005 28.6943 83.8421 C 0.0 **** 0.0
26087 C39 101.812 31.7261 91.2133 C 0.0 **** 0.0
26088 C40 102.059 30.2506 91.3304 C 0.0 **** 0.0
26089 C41 100.911 29.5076 91.1237 C 0.0 **** 0.0
26090 C42 100.861 28.1363 91.3405 C 0.0 **** 0.0
26091 C43 102.054 27.4504 91.5517 C 0.0 **** 0.0
26092 C44 103.3 28.1591 91.5945 C 0.0 **** 0.0
26093 C45 103.287 29.5895 91.5193 C 0.0 **** 0.0
26094 C46 104.497 30.2846 91.5245 C 0.0 **** 0.0
26095 C47 105.704 29.6154 91.7887 C 0.0 **** 0.0
26096 C48 105.714 28.2452 91.9565 C 0.0 **** 0.0
26097 C49 104.52 27.4949 91.8777 C 0.0 **** 0.0
26098 C50 104.48 26.0935 92.0288 C 0.0 **** 0.0
26099 C51 103.258 25.4019 92.0397 C 0.0 **** 0.0
26100 C52 102.048 26.1004 91.7696 C 0.0 **** 0.0
26101 O53 93.903 38.5397 91.9822 O 0.0 **** 0.0
26102 C54 91.957 36.547 92.6237 C 0.0 **** 0.0
26103 O55 99.9578 34.0739 91.2258 O 0.0 **** 0.0
26104 C56 107.027 30.2401 91.7837 C 0.0 **** 0.0
26105 C57 107.691 30.0989 90.4006 C 0.0 **** 0.0
26106 O58 101.98 29.3861 84.9568 O 0.0 **** 0.0
26107 O59 94.463 28.094 86.3171 O 0.0 **** 0.0
26108 O60 105.655 25.3225 92.174 O 0.0 **** 0.0
26109 H61 96.3863 37.6051 91.3725 H 0.0 **** 0.0
26110 H62 93.0565 34.0477 92.2454 H 0.0 **** 0.0
26111 H63 98.0866 35.3877 91.8805 H 0.0 **** 0.0
26112 H64 97.6841 35.4137 90.1128 H 0.0 **** 0.0
26113 H65 93.7139 32.0333 92.7751 H 0.0 **** 0.0
26114 H66 93.2682 32.0528 91.0187 H 0.0 **** 0.0
26115 H67 94.0074 29.7166 92.8198 H 0.0 **** 0.0
26116 H68 92.5518 29.9684 91.8554 H 0.0 **** 0.0
26117 H69 94.0057 28.2786 90.8046 H 0.0 **** 0.0
26118 H70 93.7899 29.675 89.7338 H 0.0 **** 0.0
26119 H71 99.7485 28.4664 88.8663 H 0.0 **** 0.0
26120 H72 94.9158 27.7868 88.9253 H 0.0 **** 0.0
26121 H73 97.8176 29.4188 82.1548 H 0.0 **** 0.0
26122 H74 98.4797 27.7163 81.7626 H 0.0 **** 0.0
26123 H75 96.0431 27.9294 81.6965 H 0.0 **** 0.0
26124 H76 96.6857 26.6454 82.7133 H 0.0 **** 0.0
26125 H77 95.3585 29.2395 83.616 H 0.0 **** 0.0
26126 H78 94.9299 27.4647 83.8674 H 0.0 **** 0.0
26127 H79 100.7 28.5689 87.1261 H 0.0 **** 0.0
26128 H80 100.565 28.9263 82.9241 H 0.0 **** 0.0
26129 H81 102.416 32.1721 90.3651 H 0.0 **** 0.0
26130 H82 102.015 32.2538 92.2167 H 0.0 **** 0.0
26131 H83 99.9276 27.589 91.2171 H 0.0 **** 0.0
26132 H84 104.532 31.3787 91.3846 H 0.0 **** 0.0
26133 H85 106.633 27.7915 92.1435 H 0.0 **** 0.0
26134 H86 103.296 24.3368 92.1139 H 0.0 **** 0.0
26135 H87 101.109 25.4976 91.8105 H 0.0 **** 0.0
26136 H88 94.5974 39.2014 91.7022 H 0.0 **** 0.0
26137 H89 91.9951 37.0641 93.5778 H 0.0 **** 0.0
26138 H90 91.2674 35.6604 92.7119 H 0.0 **** 0.0
26139 H91 91.4427 37.1832 91.8628 H 0.0 **** 0.0
26140 H92 100.936 34.1624 91.0122 H 0.0 **** 0.0
26141 H93 106.851 31.3798 91.9803 H 0.0 **** 0.0
26142 H94 108.785 30.2124 90.5287 H 0.0 **** 0.0
26143 H95 107.505 30.9606 89.7089 H 0.0 **** 0.0
26144 H96 107.528 29.1852 89.845 H 0.0 **** 0.0
26145 H97 102.465 29.232 85.8363 H 0.0 **** 0.0
26146 H98 94.0838 28.5247 87.1442 H 0.0 **** 0.0
26147 H99 106.497 25.794 92.4982 H 0.0 **** 0.0
26148 H100 98.7761 27.1738 89.2968 H 0.0 **** 0.0
26149 H101 96.2818 26.8088 89.2633 H 0.0 **** 0.0
26150 H102 107.714 29.7428 92.5565 H 0.0 **** 0.0
26151 C1 98.6264 89.8181 12.1545 C 0.0 **** 0.0
26152 C2 98.842 91.1927 12.2932 C 0.0 **** 0.0
26153 C3 98.7887 91.9836 11.1555 C 0.0 **** 0.0
26154 C4 98.4581 91.4538 9.9213 C 0.0 **** 0.0
26155 C5 98.1056 90.1343 9.77306 C 0.0 **** 0.0
26156 C6 98.2108 89.2796 10.8828 C 0.0 **** 0.0
26157 C7 98.3872 92.595 9.01828 C 0.0 **** 0.0
26158 C8 98.5385 93.7868 9.71588 C 0.0 **** 0.0
26159 C9 98.8237 93.4679 11.1545 C 0.0 **** 0.0
26160 C10 98.4221 95.0361 9.0965 C 0.0 **** 0.0
26161 C11 98.3314 95.0654 7.65414 C 0.0 **** 0.0
26162 C12 98.3288 93.8515 6.95467 C 0.0 **** 0.0
26163 C13 98.3876 92.5964 7.60792 C 0.0 **** 0.0
26164 C14 98.6073 91.342 6.78399 C 0.0 **** 0.0
26165 C15 99.3874 91.651 5.52219 C 0.0 **** 0.0
26166 C16 98.6692 92.6665 4.6929 C 0.0 **** 0.0
26167 C17 98.3314 93.9149 5.47692 C 0.0 **** 0.0
26168 C18 97.8288 95.0283 4.85278 C 0.0 **** 0.0
26169 C19 97.6657 96.2242 5.57908 C 0.0 **** 0.0
26170 C20 98.1009 96.2848 6.94201 C 0.0 **** 0.0
26171 C21 98.2668 97.4816 7.65395 C 0.0 **** 0.0
26172 C22 98.3509 97.4663 9.04155 C 0.0 **** 0.0
26173 C23 98.397 96.2334 9.79097 C 0.0 **** 0.0
26174 C24 96.519 97.1278 5.1217 C 0.0 **** 0.0
26175 C25 96.6049 97.413 3.68308 C 0.0 **** 0.0
26176 C26 96.8554 96.254 2.82175 C 0.0 **** 0.0
26177 C27 97.3539 94.9466 3.43103 C 0.0 **** 0.0
26178 C28 96.6551 96.428 1.42661 C 0.0 **** 0.0
26179 C29 96.2713 97.6626 0.872997 C 0.0 **** 0.0
26180 C30 96.1431 98.8106 1.68395 C 0.0 **** 0.0
26181 C31 96.3297 98.7015 3.08211 C 0.0 **** 0.0
26182 C32 95.8417 100.177 1.10168 C 0.0 **** 0.0
26183 C33 95.7384 100.337 -0.36302 C 0.0 **** 0.0
26184 C34 96.4906 99.2111 -1.10044 C 0.0 **** 0.0
26185 C35 96.0572 97.827 -0.612095 C 0.0 **** 0.0
26186 C36 96.1823 99.8845 3.86479 C 0.0 **** 0.0
26187 C37 95.9636 101.175 3.29621 C 0.0 **** 0.0
26188 C38 95.8175 101.328 1.92067 C 0.0 **** 0.0
26189 C39 98.6716 98.7837 9.56638 C 0.0 **** 0.0
26190 C40 98.7594 99.5832 8.30758 C 0.0 **** 0.0
26191 C41 98.5419 98.7602 7.19506 C 0.0 **** 0.0
26192 C42 98.8241 99.2377 5.88203 C 0.0 **** 0.0
26193 C43 99.2111 100.6 5.70411 C 0.0 **** 0.0
26194 C44 99.407 101.433 6.87669 C 0.0 **** 0.0
26195 C45 99.2192 100.916 8.15699 C 0.0 **** 0.0
26196 C46 99.6521 101.68 9.26682 C 0.0 **** 0.0
26197 C47 100.236 102.965 9.08512 C 0.0 **** 0.0
26198 C48 100.27 103.511 7.77631 C 0.0 **** 0.0
26199 C49 99.8676 102.753 6.68558 C 0.0 **** 0.0
26200 C50 99.9835 103.261 5.37774 C 0.0 **** 0.0
26201 C51 99.7498 102.415 4.28146 C 0.0 **** 0.0
26202 C52 99.3154 101.134 4.42516 C 0.0 **** 0.0
26203 O53 98.7009 89.0335 13.2766 O 0.0 **** 0.0
26204 C54 97.9542 87.815 10.694 C 0.0 **** 0.0
26205 O55 98.4301 96.2537 11.1862 O 0.0 **** 0.0
26206 C56 100.818 103.684 10.3097 C 0.0 **** 0.0
26207 C57 100.234 105.09 10.4533 C 0.0 **** 0.0
26208 O58 95.8927 102.29 4.10325 O 0.0 **** 0.0
26209 O59 96.9734 95.392 0.518441 O 0.0 **** 0.0
26210 O60 100.47 104.555 5.14758 O 0.0 **** 0.0
26211 H61 98.9894 91.6452 13.2602 H 0.0 **** 0.0
26212 H62 97.7699 89.712 8.83585 H 0.0 **** 0.0
26213 H63 99.8095 93.8862 11.4706 H 0.0 **** 0.0
26214 H64 97.9794 93.764 11.818 H 0.0 **** 0.0
26215 H65 99.2171 90.5626 7.29099 H 0.0 **** 0.0
26216 H66 97.6732 90.8694 6.41312 H 0.0 **** 0.0
26217 H67 100.366 91.9821 5.79838 H 0.0 **** 0.0
26218 H68 99.5952 90.721 4.90073 H 0.0 **** 0.0
26219 H69 99.3952 92.9209 3.89363 H 0.0 **** 0.0
26220 H70 97.7306 92.2709 4.42329 H 0.0 **** 0.0
26221 H71 95.5919 96.5365 5.33735 H 0.0 **** 0.0
26222 H72 96.5452 94.1991 3.45179 H 0.0 **** 0.0
26223 H73 94.6415 100.263 -0.605923 H 0.0 **** 0.0
26224 H74 96.2268 101.31 -0.650202 H 0.0 **** 0.0
26225 H75 96.3028 99.2415 -2.18741 H 0.0 **** 0.0
26226 H76 97.585 99.2753 -1.06682 H 0.0 **** 0.0
26227 H77 94.9909 97.6513 -0.846326 H 0.0 **** 0.0
26228 H78 96.5951 97.0653 -1.17442 H 0.0 **** 0.0
26229 H79 96.2874 99.8874 4.95065 H 0.0 **** 0.0
26230 H80 95.674 102.306 1.48362 H 0.0 **** 0.0
26231 H81 97.9016 99.1453 10.266 H 0.0 **** 0.0
26232 H82 99.6917 98.7609 10.0394 H 0.0 **** 0.0
26233 H83 98.7422 98.6049 5.02507 H 0.0 **** 0.0
26234 H84 99.5767 101.211 10.232 H 0.0 **** 0.0
26235 H85 100.743 104.441 7.68116 H 0.0 **** 0.0
26236 H86 99.8619 102.791 3.24465 H 0.0 **** 0.0
26237 H87 99.1272 100.478 3.60495 H 0.0 **** 0.0
26238 H88 99.1557 89.4739 14.0844 H 0.0 **** 0.0
26239 H89 97.7419 87.3125 11.6479 H 0.0 **** 0.0
26240 H90 98.8298 87.357 10.2114 H 0.0 **** 0.0
26241 H91 97.151 87.6739 9.95047 H 0.0 **** 0.0
26242 H92 98.5042 97.1917 11.5696 H 0.0 **** 0.0
26243 H93 100.665 103.161 11.2485 H 0.0 **** 0.0
26244 H94 100.681 105.605 11.3244 H 0.0 **** 0.0
26245 H95 99.1693 105.009 10.6875 H 0.0 **** 0.0
26246 H96 100.474 105.721 9.58183 H 0.0 **** 0.0
26247 H97 95.999 102.16 5.10565 H 0.0 **** 0.0
26248 H98 97.0755 94.4919 0.924348 H 0.0 **** 0.0
26249 H99 100.059 105.248 5.77627 H 0.0 **** 0.0
26250 H100 96.4257 97.992 5.77893 H 0.0 **** 0.0
26251 H101 98.2177 94.7172 2.80191 H 0.0 **** 0.0
26252 H102 101.9 103.828 10.1983 H 0.0 **** 0.0
26253 C1 46.4159 89.7174 58.6957 C 0.0 **** 0.0
26254 C2 45.0419 89.3835 58.7702 C 0.0 **** 0.0
26255 C3 44.1383 89.9859 57.8681 C 0.0 **** 0.0
26256 C4 44.546 90.8532 56.8792 C 0.0 **** 0.0
26257 C5 45.9338 91.0927 56.7323 C 0.0 **** 0.0
26258 C6 46.8532 90.4991 57.6292 C 0.0 **** 0.0
26259 C7 43.3205 91.3832 56.2832 C 0.0 **** 0.0
26260 C8 42.2268 90.7855 56.9307 C 0.0 **** 0.0
26261 C9 42.6826 89.9756 58.0653 C 0.0 **** 0.0
26262 C10 40.887 91.0959 56.6425 C 0.0 **** 0.0
26263 C11 40.6362 92.0525 55.5743 C 0.0 **** 0.0
26264 C12 41.7312 92.6824 54.9366 C 0.0 **** 0.0
26265 C13 43.0595 92.3619 55.31 C 0.0 **** 0.0
26266 C14 44.2128 93.1123 54.6777 C 0.0 **** 0.0
26267 C15 43.7547 94.477 54.1246 C 0.0 **** 0.0
26268 C16 42.5805 94.3389 53.1617 C 0.0 **** 0.0
26269 C17 41.426 93.6902 53.8616 C 0.0 **** 0.0
26270 C18 40.0978 93.8087 53.4125 C 0.0 **** 0.0
26271 C19 39.114 93.0033 53.9398 C 0.0 **** 0.0
26272 C20 39.3406 92.3587 55.1849 C 0.0 **** 0.0
26273 C21 38.2891 91.9739 56.0648 C 0.0 **** 0.0
26274 C22 38.4932 90.9602 56.9729 C 0.0 **** 0.0
26275 C23 39.7971 90.4707 57.2602 C 0.0 **** 0.0
26276 C24 37.9416 92.6644 53.0528 C 0.0 **** 0.0
26277 C25 37.3567 93.9382 52.4764 C 0.0 **** 0.0
26278 C26 38.2024 95.0401 52.2145 C 0.0 **** 0.0
26279 C27 39.725 94.9057 52.3957 C 0.0 **** 0.0
26280 C28 37.6371 96.308 51.9223 C 0.0 **** 0.0
26281 C29 36.2023 96.4757 51.9502 C 0.0 **** 0.0
26282 C30 35.3836 95.3461 52.0583 C 0.0 **** 0.0
26283 C31 35.9595 94.0611 52.2228 C 0.0 **** 0.0
26284 C32 33.9019 95.4815 51.8975 C 0.0 **** 0.0
26285 C33 33.2825 96.8538 51.7175 C 0.0 **** 0.0
26286 C34 34.1605 97.9006 52.3308 C 0.0 **** 0.0
26287 C35 35.5624 97.8154 51.6629 C 0.0 **** 0.0
26288 C36 35.0967 92.9576 52.1691 C 0.0 **** 0.0
26289 C37 33.7268 93.1245 51.9422 C 0.0 **** 0.0
26290 C38 33.1438 94.3485 51.8104 C 0.0 **** 0.0
26291 C39 37.2683 90.4941 57.6292 C 0.0 **** 0.0
26292 C40 36.298 91.4269 57.0109 C 0.0 **** 0.0
26293 C41 36.9476 92.3174 56.1712 C 0.0 **** 0.0
26294 C42 36.2999 93.3846 55.5596 C 0.0 **** 0.0
26295 C43 34.8818 93.4459 55.7232 C 0.0 **** 0.0
26296 C44 34.1829 92.4376 56.4235 C 0.0 **** 0.0
26297 C45 34.8812 91.4271 57.1414 C 0.0 **** 0.0
26298 C46 34.2049 90.3815 57.7691 C 0.0 **** 0.0
26299 C47 32.7779 90.2802 57.6916 C 0.0 **** 0.0
26300 C48 32.0632 91.3198 57.0543 C 0.0 **** 0.0
26301 C49 32.7469 92.4406 56.4997 C 0.0 **** 0.0
26302 C50 32.0405 93.5587 55.9799 C 0.0 **** 0.0
26303 C51 32.7666 94.6126 55.3789 C 0.0 **** 0.0
26304 C52 34.1575 94.543 55.226 C 0.0 **** 0.0
26305 O53 47.3437 89.1802 59.6085 O 0.0 **** 0.0
26306 C54 48.3541 90.5717 57.3241 C 0.0 **** 0.0
26307 O55 39.9973 89.4226 58.1575 O 0.0 **** 0.0
26308 C56 32.0446 89.0855 58.2753 C 0.0 **** 0.0
26309 C57 31.369 88.1911 57.191 C 0.0 **** 0.0
26310 O58 32.935 91.9704 51.7404 O 0.0 **** 0.0
26311 O59 38.4443 97.4298 51.6643 O 0.0 **** 0.0
26312 O60 30.6805 93.7508 56.1321 O 0.0 **** 0.0
26313 H61 44.7491 88.728 59.5365 H 0.0 **** 0.0
26314 H62 46.34 91.6632 55.9015 H 0.0 **** 0.0
26315 H63 42.3675 90.4249 59.0108 H 0.0 **** 0.0
26316 H64 42.3329 88.9827 57.9207 H 0.0 **** 0.0
26317 H65 45.0017 93.2817 55.4195 H 0.0 **** 0.0
26318 H66 44.6321 92.4732 53.8806 H 0.0 **** 0.0
26319 H67 43.4184 95.165 54.9629 H 0.0 **** 0.0
26320 H68 44.6174 94.9498 53.59 H 0.0 **** 0.0
26321 H69 42.3616 95.3274 52.6673 H 0.0 **** 0.0
26322 H70 42.9267 93.7024 52.3236 H 0.0 **** 0.0
26323 H71 38.3629 92.0195 52.2414 H 0.0 **** 0.0
26324 H72 40.2067 94.6863 51.3668 H 0.0 **** 0.0
26325 H73 33.1978 97.1235 50.6092 H 0.0 **** 0.0
26326 H74 32.2854 96.8752 52.2073 H 0.0 **** 0.0
26327 H75 33.7316 98.9222 52.0735 H 0.0 **** 0.0
26328 H76 34.1956 97.736 53.4312 H 0.0 **** 0.0
26329 H77 35.4953 97.928 50.5772 H 0.0 **** 0.0
26330 H78 36.1875 98.5682 52.1508 H 0.0 **** 0.0
26331 H79 35.5476 91.9447 52.169 H 0.0 **** 0.0
26332 H80 32.058 94.3809 51.6546 H 0.0 **** 0.0
26333 H81 37.0028 89.4683 57.2488 H 0.0 **** 0.0
26334 H82 37.3083 90.5873 58.7099 H 0.0 **** 0.0
26335 H83 36.8319 94.1086 54.9816 H 0.0 **** 0.0
26336 H84 34.7612 89.5467 58.201 H 0.0 **** 0.0
26337 H85 31.0114 91.2346 56.9842 H 0.0 **** 0.0
26338 H86 32.1997 95.4592 54.9981 H 0.0 **** 0.0
26339 H87 34.6831 95.3913 54.8417 H 0.0 **** 0.0
26340 H88 46.874 88.5945 60.2759 H 0.0 **** 0.0
26341 H89 48.9647 89.9062 58.0443 H 0.0 **** 0.0
26342 H90 48.6454 91.6325 57.3423 H 0.0 **** 0.0
26343 H91 48.5833 90.2357 56.3009 H 0.0 **** 0.0
26344 H92 39.1467 89.2183 58.6415 H 0.0 **** 0.0
26345 H93 32.7185 88.4411 58.85 H 0.0 **** 0.0
26346 H94 30.8457 87.3618 57.7458 H 0.0 **** 0.0
26347 H95 32.1163 87.8194 56.462 H 0.0 **** 0.0
26348 H96 30.6361 88.7906 56.6803 H 0.0 **** 0.0
26349 H97 33.4202 91.1346 51.955 H 0.0 **** 0.0
26350 H98 39.3059 97.1411 51.2552 H 0.0 **** 0.0
26351 H99 30.3169 93.2361 56.9313 H 0.0 **** 0.0
26352 H100 37.2142 92.0075 53.5755 H 0.0 **** 0.0
26353 H101 40.1104 95.8218 52.8315 H 0.0 **** 0.0
26354 H102 31.3009 89.5374 58.9653 H 0.0 **** 0.0
26355 C1 74.1586 77.2309 64.1729 C 0.0 **** 0.0
26356 C2 74.5012 77.8056 62.9441 C 0.0 **** 0.0
26357 C3 73.7451 78.7959 62.4164 C 0.0 **** 0.0
26358 C4 72.7277 79.4067 63.1477 C 0.0 **** 0.0
26359 C5 72.4122 78.9183 64.4291 C 0.0 **** 0.0
26360 C6 73.0858 77.7894 64.9367 C 0.0 **** 0.0
26361 C7 72.3576 80.6298 62.4941 C 0.0 **** 0.0
26362 C8 73.2169 80.8156 61.4278 C 0.0 **** 0.0
26363 C9 74.1137 79.6128 61.2348 C 0.0 **** 0.0
26364 C10 73.2347 82.0327 60.7153 C 0.0 **** 0.0
26365 C11 72.3261 83.0645 61.0563 C 0.0 **** 0.0
26366 C12 71.5258 82.8886 62.1884 C 0.0 **** 0.0
26367 C13 71.4718 81.652 62.8897 C 0.0 **** 0.0
26368 C14 70.4671 81.4618 64.0555 C 0.0 **** 0.0
26369 C15 69.358 82.5544 64.056 C 0.0 **** 0.0
26370 C16 70.0175 83.91 63.9921 C 0.0 **** 0.0
26371 C17 70.8543 84.0608 62.7683 C 0.0 **** 0.0
26372 C18 71.3121 85.363 62.3603 C 0.0 **** 0.0
26373 C19 71.9854 85.5233 61.1267 C 0.0 **** 0.0
26374 C20 72.4024 84.3167 60.4199 C 0.0 **** 0.0
26375 C21 73.1194 84.3529 59.2032 C 0.0 **** 0.0
26376 C22 74.0732 83.385 58.8945 C 0.0 **** 0.0
26377 C23 74.1688 82.2071 59.6434 C 0.0 **** 0.0
26378 C24 72.4522 86.8998 60.6267 C 0.0 **** 0.0
26379 C25 72.6049 87.9315 61.6821 C 0.0 **** 0.0
26380 C26 71.9708 87.7818 62.921 C 0.0 **** 0.0
26381 C27 71.1753 86.5083 63.303 C 0.0 **** 0.0
26382 C28 72.1065 88.8314 63.92 C 0.0 **** 0.0
26383 C29 72.9708 89.915 63.729 C 0.0 **** 0.0
26384 C30 73.5368 90.0955 62.4564 C 0.0 **** 0.0
26385 C31 73.3332 89.1335 61.4199 C 0.0 **** 0.0
26386 C32 74.3701 91.3007 62.1597 C 0.0 **** 0.0
26387 C33 74.7437 92.203 63.2759 C 0.0 **** 0.0
26388 C34 73.5805 92.3389 64.2636 C 0.0 **** 0.0
26389 C35 73.1952 90.9554 64.8243 C 0.0 **** 0.0
26390 C36 73.7297 89.4824 60.0894 C 0.0 **** 0.0
26391 C37 74.4195 90.6514 59.8303 C 0.0 **** 0.0
26392 C38 74.7326 91.5481 60.8539 C 0.0 **** 0.0
26393 C39 74.7984 83.7569 57.5957 C 0.0 **** 0.0
26394 C40 74.093 85.0319 57.2759 C 0.0 **** 0.0
26395 C41 73.0219 85.2533 58.1335 C 0.0 **** 0.0
26396 C42 71.9916 86.1245 57.8001 C 0.0 **** 0.0
26397 C43 72.1805 86.9866 56.687 C 0.0 **** 0.0
26398 C44 73.3474 86.9007 55.8865 C 0.0 **** 0.0
26399 C45 74.3232 85.9167 56.1901 C 0.0 **** 0.0
26400 C46 75.4743 85.7825 55.3507 C 0.0 **** 0.0
26401 C47 75.6969 86.7052 54.3249 C 0.0 **** 0.0
26402 C48 74.6765 87.5863 53.984 C 0.0 **** 0.0
26403 C49 73.4704 87.6178 54.6531 C 0.0 **** 0.0
26404 C50 72.4157 88.4568 54.2166 C 0.0 **** 0.0
26405 C51 71.2742 88.5835 55.0615 C 0.0 **** 0.0
26406 C52 71.169 87.8202 56.2157 C 0.0 **** 0.0
26407 O53 74.8862 76.1721 64.7258 O 0.0 **** 0.0
26408 C54 72.8055 77.2187 66.3142 C 0.0 **** 0.0
26409 O55 75.052 81.1536 59.2192 O 0.0 **** 0.0
26410 C56 76.8849 86.5781 53.4445 C 0.0 **** 0.0
26411 C57 78.2164 86.7407 54.1899 C 0.0 **** 0.0
26412 O58 74.8942 91.0197 58.528 O 0.0 **** 0.0
26413 O59 71.3745 88.8321 65.1056 O 0.0 **** 0.0
26414 O60 72.4341 89.1111 52.9378 O 0.0 **** 0.0
26415 H61 75.4076 77.3978 62.4183 H 0.0 **** 0.0
26416 H62 71.734 79.4286 65.0051 H 0.0 **** 0.0
26417 H63 73.9351 78.9764 60.3522 H 0.0 **** 0.0
26418 H64 75.2226 79.9068 61.2658 H 0.0 **** 0.0
26419 H65 69.965 80.5024 63.9898 H 0.0 **** 0.0
26420 H66 71.0723 81.5685 65.0535 H 0.0 **** 0.0
26421 H67 68.8372 82.4819 63.0517 H 0.0 **** 0.0
26422 H68 68.6625 82.4328 64.9157 H 0.0 **** 0.0
26423 H69 69.1603 84.6164 63.9791 H 0.0 **** 0.0
26424 H70 70.6562 84.0453 64.9156 H 0.0 **** 0.0
26425 H71 73.4158 86.8204 60.0861 H 0.0 **** 0.0
26426 H72 71.6302 86.1351 64.2163 H 0.0 **** 0.0
26427 H73 75.6384 91.8432 63.7977 H 0.0 **** 0.0
26428 H74 75.0514 93.23 62.876 H 0.0 **** 0.0
26429 H75 73.88 93.0224 65.0876 H 0.0 **** 0.0
26430 H76 72.6842 92.7326 63.7638 H 0.0 **** 0.0
26431 H77 74.0246 90.5591 65.3966 H 0.0 **** 0.0
26432 H78 72.3164 91.0303 65.4588 H 0.0 **** 0.0
26433 H79 73.5279 88.8361 59.2381 H 0.0 **** 0.0
26434 H80 75.3265 92.4454 60.5909 H 0.0 **** 0.0
26435 H81 75.8886 83.8696 57.7689 H 0.0 **** 0.0
26436 H82 74.575 83.046 56.7618 H 0.0 **** 0.0
26437 H83 71.0077 86.023 58.2412 H 0.0 **** 0.0
26438 H84 76.2099 85.0005 55.5607 H 0.0 **** 0.0
26439 H85 74.7867 88.1384 53.0848 H 0.0 **** 0.0
26440 H86 70.5231 89.2274 54.7288 H 0.0 **** 0.0
26441 H87 70.272 87.9355 56.8283 H 0.0 **** 0.0
26442 H88 75.6944 75.893 64.1919 H 0.0 **** 0.0
26443 H89 73.7376 77.1294 66.9596 H 0.0 **** 0.0
26444 H90 72.3547 76.2597 66.1296 H 0.0 **** 0.0
26445 H91 72.1202 77.9091 66.8876 H 0.0 **** 0.0
26446 H92 75.5544 81.3895 58.3325 H 0.0 **** 0.0
26447 H93 76.9103 85.6493 52.9069 H 0.0 **** 0.0
26448 H94 78.3995 87.8047 54.4204 H 0.0 **** 0.0
26449 H95 79.0249 86.2998 53.5705 H 0.0 **** 0.0
26450 H96 78.2452 86.2508 55.1197 H 0.0 **** 0.0
26451 H97 74.4353 90.4757 57.8236 H 0.0 **** 0.0
26452 H98 70.8029 88.0357 65.2476 H 0.0 **** 0.0
26453 H99 72.9861 88.6458 52.1874 H 0.0 **** 0.0
26454 H100 71.7112 87.278 59.9025 H 0.0 **** 0.0
26455 H101 70.1164 86.785 63.5055 H 0.0 **** 0.0
26456 H102 76.8661 87.2991 52.618 H 0.0 **** 0.0
26457 C1 89.1691 89.4938 30.0374 C 0.0 **** 0.0
26458 C2 88.2528 88.9062 29.1596 C 0.0 **** 0.0
26459 C3 88.3343 87.5216 28.9153 C 0.0 **** 0.0
26460 C4 89.2486 86.7159 29.6188 C 0.0 **** 0.0
26461 C5 90.0517 87.2778 30.607 C 0.0 **** 0.0
26462 C6 90.0466 88.6617 30.7612 C 0.0 **** 0.0
26463 C7 89.0733 85.3389 29.2025 C 0.0 **** 0.0
26464 C8 88.0398 85.3231 28.2997 C 0.0 **** 0.0
26465 C9 87.5025 86.69 28.0395 C 0.0 **** 0.0
26466 C10 87.544 84.162 27.7835 C 0.0 **** 0.0
26467 C11 88.1022 82.9332 28.2193 C 0.0 **** 0.0
26468 C12 89.0663 82.9213 29.2681 C 0.0 **** 0.0
26469 C13 89.6247 84.1335 29.7126 C 0.0 **** 0.0
26470 C14 90.7076 84.1061 30.7701 C 0.0 **** 0.0
26471 C15 91.4393 82.801 30.9282 C 0.0 **** 0.0
26472 C16 90.5172 81.5916 31.0116 C 0.0 **** 0.0
26473 C17 89.4956 81.6124 29.8613 C 0.0 **** 0.0
26474 C18 88.9142 80.411 29.3334 C 0.0 **** 0.0
26475 C19 87.9024 80.4943 28.3534 C 0.0 **** 0.0
26476 C20 87.6743 81.7078 27.6416 C 0.0 **** 0.0
26477 C21 86.8009 81.7794 26.5312 C 0.0 **** 0.0
26478 C22 86.1173 82.9483 26.2608 C 0.0 **** 0.0
26479 C23 86.4703 84.15 26.8682 C 0.0 **** 0.0
26480 C24 86.8118 79.4981 28.3855 C 0.0 **** 0.0
26481 C25 87.279 78.0694 28.6682 C 0.0 **** 0.0
26482 C26 88.4228 77.8731 29.4987 C 0.0 **** 0.0
26483 C27 89.327 79.0547 29.8786 C 0.0 **** 0.0
26484 C28 88.4856 76.6802 30.2703 C 0.0 **** 0.0
26485 C29 87.4807 75.7227 30.176 C 0.0 **** 0.0
26486 C30 86.379 75.9021 29.3707 C 0.0 **** 0.0
26487 C31 86.3255 77.0207 28.511 C 0.0 **** 0.0
26488 C32 85.139 75.1064 29.5737 C 0.0 **** 0.0
26489 C33 85.0432 74.243 30.8218 C 0.0 **** 0.0
26490 C34 86.3753 73.5589 31.0517 C 0.0 **** 0.0
26491 C35 87.5114 74.5906 31.1865 C 0.0 **** 0.0
26492 C36 85.2283 77.1403 27.6199 C 0.0 **** 0.0
26493 C37 84.1103 76.2842 27.7344 C 0.0 **** 0.0
26494 C38 84.038 75.326 28.7246 C 0.0 **** 0.0
26495 C39 85.1334 82.8144 25.1859 C 0.0 **** 0.0
26496 C40 85.4282 81.4383 24.7429 C 0.0 **** 0.0
26497 C41 86.4454 80.861 25.5092 C 0.0 **** 0.0
26498 C42 87.0144 79.6359 25.1374 C 0.0 **** 0.0
26499 C43 86.5037 78.9588 24.0111 C 0.0 **** 0.0
26500 C44 85.4001 79.5277 23.2637 C 0.0 **** 0.0
26501 C45 84.8083 80.7603 23.6855 C 0.0 **** 0.0
26502 C46 83.7427 81.3006 23.0179 C 0.0 **** 0.0
26503 C47 83.2874 80.7074 21.8478 C 0.0 **** 0.0
26504 C48 83.9462 79.5801 21.34 C 0.0 **** 0.0
26505 C49 85.0383 78.9713 22.0029 C 0.0 **** 0.0
26506 C50 85.7261 77.8221 21.5361 C 0.0 **** 0.0
26507 C51 86.7603 77.2718 22.3018 C 0.0 **** 0.0
26508 C52 87.2163 77.8435 23.5059 C 0.0 **** 0.0
26509 O53 89.1638 90.9233 30.1988 O 0.0 **** 0.0
26510 C54 90.9548 89.3018 31.759 C 0.0 **** 0.0
26511 O55 85.7116 85.2953 26.6174 O 0.0 **** 0.0
26512 C56 82.0504 81.2719 21.1263 C 0.0 **** 0.0
26513 C57 82.3257 82.6966 20.6817 C 0.0 **** 0.0
26514 O58 83.0433 76.4416 26.8498 O 0.0 **** 0.0
26515 O59 89.5109 76.4571 31.1696 O 0.0 **** 0.0
26516 O60 85.5476 77.2415 20.2849 O 0.0 **** 0.0
26517 H61 87.3948 89.4636 28.7326 H 0.0 **** 0.0
26518 H62 90.6671 86.7092 31.2857 H 0.0 **** 0.0
26519 H63 87.5773 86.9836 26.9715 H 0.0 **** 0.0
26520 H64 86.4303 86.7851 28.4 H 0.0 **** 0.0
26521 H65 91.4041 84.8986 30.4894 H 0.0 **** 0.0
26522 H66 90.2561 84.3611 31.7774 H 0.0 **** 0.0
26523 H67 92.1875 82.6675 30.1013 H 0.0 **** 0.0
26524 H68 92.0103 82.9052 31.8849 H 0.0 **** 0.0
26525 H69 91.1125 80.6861 30.9811 H 0.0 **** 0.0
26526 H70 89.9762 81.6987 32.0048 H 0.0 **** 0.0
26527 H71 86.2174 79.7609 29.2852 H 0.0 **** 0.0
26528 H72 89.2537 79.1244 30.9707 H 0.0 **** 0.0
26529 H73 84.8332 74.9097 31.692 H 0.0 **** 0.0
26530 H74 84.242 73.4894 30.7874 H 0.0 **** 0.0
26531 H75 86.2366 73.0105 32.0081 H 0.0 **** 0.0
26532 H76 86.5671 72.7857 30.2553 H 0.0 **** 0.0
26533 H77 87.4352 75.0141 32.1853 H 0.0 **** 0.0
26534 H78 88.4683 74.0519 31.1558 H 0.0 **** 0.0
26535 H79 85.3216 77.8299 26.774 H 0.0 **** 0.0
26536 H80 83.1266 74.8048 28.8307 H 0.0 **** 0.0
26537 H81 84.1017 83.0029 25.5399 H 0.0 **** 0.0
26538 H82 85.4658 83.5592 24.4149 H 0.0 **** 0.0
26539 H83 87.8525 79.2598 25.7025 H 0.0 **** 0.0
26540 H84 83.1699 82.1275 23.4435 H 0.0 **** 0.0
26541 H85 83.4559 79.135 20.4892 H 0.0 **** 0.0
26542 H86 87.3025 76.4052 21.9028 H 0.0 **** 0.0
26543 H87 88.0387 77.4654 24.0007 H 0.0 **** 0.0
26544 H88 88.3352 91.3331 29.8182 H 0.0 **** 0.0
26545 H89 91.6355 90.0223 31.2443 H 0.0 **** 0.0
26546 H90 91.5564 88.555 32.2988 H 0.0 **** 0.0
26547 H91 90.4137 89.88 32.5647 H 0.0 **** 0.0
26548 H92 84.8789 85.205 26.0299 H 0.0 **** 0.0
26549 H93 81.7748 80.7004 20.247 H 0.0 **** 0.0
26550 H94 81.5002 83.0176 19.9879 H 0.0 **** 0.0
26551 H95 83.2856 82.7606 20.1673 H 0.0 **** 0.0
26552 H96 82.3164 83.3097 21.6129 H 0.0 **** 0.0
26553 H97 83.1345 77.2467 26.2196 H 0.0 **** 0.0
26554 H98 90.3025 77.0689 31.1776 H 0.0 **** 0.0
26555 H99 84.8781 77.7507 19.7063 H 0.0 **** 0.0
26556 H100 86.1134 79.5549 27.5254 H 0.0 **** 0.0
26557 H101 90.386 78.8689 29.5912 H 0.0 **** 0.0
26558 H102 81.1434 81.2239 21.8153 H 0.0 **** 0.0
26559 C1 80.48 91.738 27.9177 C 0.0 **** 0.0
26560 C2 80.4876 92.0794 26.5558 C 0.0 **** 0.0
26561 C3 80.8884 91.1248 25.61 C 0.0 **** 0.0
26562 C4 81.0596 89.8017 25.959 C 0.0 **** 0.0
26563 C5 80.944 89.4139 27.3044 C 0.0 **** 0.0
26564 C6 80.697 90.3878 28.3027 C 0.0 **** 0.0
26565 C7 81.0025 89.0309 24.6797 C 0.0 **** 0.0
26566 C8 80.9265 89.9714 23.6359 C 0.0 **** 0.0
26567 C9 80.9729 91.3763 24.1564 C 0.0 **** 0.0
26568 C10 80.7201 89.5546 22.328 C 0.0 **** 0.0
26569 C11 80.5342 88.1307 22.0766 C 0.0 **** 0.0
26570 C12 80.5983 87.1779 23.1525 C 0.0 **** 0.0
26571 C13 80.9206 87.623 24.4549 C 0.0 **** 0.0
26572 C14 80.9844 86.6714 25.6194 C 0.0 **** 0.0
26573 C15 81.1793 85.2346 25.1471 C 0.0 **** 0.0
26574 C16 80.1554 84.7945 24.0855 C 0.0 **** 0.0
26575 C17 80.0912 85.7742 22.9034 C 0.0 **** 0.0
26576 C18 79.5971 85.4529 21.6059 C 0.0 **** 0.0
26577 C19 79.5111 86.4456 20.6255 C 0.0 **** 0.0
26578 C20 80.1975 87.6668 20.7797 C 0.0 **** 0.0
26579 C21 80.4955 88.5356 19.6973 C 0.0 **** 0.0
26580 C22 80.5821 89.9176 19.9052 C 0.0 **** 0.0
26581 C23 80.6167 90.4622 21.2171 C 0.0 **** 0.0
26582 C24 78.4139 86.2847 19.5993 C 0.0 **** 0.0
26583 C25 78.6409 84.9504 18.9302 C 0.0 **** 0.0
26584 C26 78.809 83.8241 19.7719 C 0.0 **** 0.0
26585 C27 78.9758 84.1161 21.2817 C 0.0 **** 0.0
26586 C28 78.9876 82.5374 19.222 C 0.0 **** 0.0
26587 C29 79.1216 82.3783 17.8686 C 0.0 **** 0.0
26588 C30 78.8249 83.4625 17.0129 C 0.0 **** 0.0
26589 C31 78.5914 84.7587 17.5098 C 0.0 **** 0.0
26590 C32 78.7447 83.2165 15.5501 C 0.0 **** 0.0
26591 C33 78.8344 81.802 15.0454 C 0.0 **** 0.0
26592 C34 79.8965 80.981 15.8381 C 0.0 **** 0.0
26593 C35 79.5471 81.0142 17.345 C 0.0 **** 0.0
26594 C36 78.3129 85.8128 16.5792 C 0.0 **** 0.0
26595 C37 78.2691 85.5422 15.1743 C 0.0 **** 0.0
26596 C38 78.4671 84.264 14.6816 C 0.0 **** 0.0
26597 C39 80.6671 90.6442 18.6099 C 0.0 **** 0.0
26598 C40 80.7709 89.4754 17.6639 C 0.0 **** 0.0
26599 C41 80.717 88.2809 18.3415 C 0.0 **** 0.0
26600 C42 81.1548 87.0905 17.7154 C 0.0 **** 0.0
26601 C43 81.5255 87.1273 16.374 C 0.0 **** 0.0
26602 C44 81.4733 88.3185 15.6354 C 0.0 **** 0.0
26603 C45 81.1113 89.5406 16.267 C 0.0 **** 0.0
26604 C46 81.054 90.7291 15.5677 C 0.0 **** 0.0
26605 C47 81.2625 90.7177 14.1695 C 0.0 **** 0.0
26606 C48 81.6704 89.5587 13.5338 C 0.0 **** 0.0
26607 C49 81.7518 88.3173 14.2218 C 0.0 **** 0.0
26608 C50 82.1713 87.1257 13.5896 C 0.0 **** 0.0
26609 C51 82.2142 85.9293 14.3488 C 0.0 **** 0.0
26610 C52 81.8633 85.9362 15.7064 C 0.0 **** 0.0
26611 O53 80.1686 92.6737 28.897 O 0.0 **** 0.0
26612 C54 80.6089 89.9852 29.7484 C 0.0 **** 0.0
26613 O55 80.732 91.8529 21.3884 O 0.0 **** 0.0
26614 C56 81.0382 91.9576 13.3477 C 0.0 **** 0.0
26615 C57 79.8838 91.7419 12.3967 C 0.0 **** 0.0
26616 O58 77.9533 86.5632 14.2505 O 0.0 **** 0.0
26617 O59 79.0443 81.4035 20.0591 O 0.0 **** 0.0
26618 O60 82.7145 87.1259 12.3075 O 0.0 **** 0.0
26619 H61 80.3154 93.0573 26.2344 H 0.0 **** 0.0
26620 H62 81.0125 88.3747 27.5797 H 0.0 **** 0.0
26621 H63 81.9481 91.8862 23.8776 H 0.0 **** 0.0
26622 H64 80.0801 92.0325 23.8531 H 0.0 **** 0.0
26623 H65 81.8661 86.9405 26.2758 H 0.0 **** 0.0
26624 H66 80.0499 86.7251 26.2035 H 0.0 **** 0.0
26625 H67 82.182 85.1613 24.668 H 0.0 **** 0.0
26626 H68 81.1177 84.5807 26.0456 H 0.0 **** 0.0
26627 H69 80.4658 83.82 23.6603 H 0.0 **** 0.0
26628 H70 79.1335 84.7373 24.5145 H 0.0 **** 0.0
26629 H71 77.4175 86.3825 20.076 H 0.0 **** 0.0
26630 H72 77.9814 84.0905 21.768 H 0.0 **** 0.0
26631 H73 77.8535 81.3671 15.115 H 0.0 **** 0.0
26632 H74 79.0954 81.789 13.9941 H 0.0 **** 0.0
26633 H75 79.8676 79.8989 15.4339 H 0.0 **** 0.0
26634 H76 80.8614 81.4289 15.6646 H 0.0 **** 0.0
26635 H77 78.813 80.2067 17.5981 H 0.0 **** 0.0
26636 H78 80.4726 80.7939 17.842 H 0.0 **** 0.0
26637 H79 78.1823 86.8395 16.8509 H 0.0 **** 0.0
26638 H80 78.3789 84.0589 13.6093 H 0.0 **** 0.0
26639 H81 79.7302 91.2057 18.5074 H 0.0 **** 0.0
26640 H82 81.6469 91.2567 18.5942 H 0.0 **** 0.0
26641 H83 81.2323 86.1489 18.3073 H 0.0 **** 0.0
26642 H84 80.779 91.7123 16.0266 H 0.0 **** 0.0
26643 H85 81.9122 89.5254 12.4659 H 0.0 **** 0.0
26644 H86 82.524 85.0492 13.8377 H 0.0 **** 0.0
26645 H87 81.9633 85.0131 16.3425 H 0.0 **** 0.0
26646 H88 79.9734 93.5733 28.61 H 0.0 **** 0.0
26647 H89 81.4055 90.5134 30.2859 H 0.0 **** 0.0
26648 H90 80.5962 88.8591 29.9358 H 0.0 **** 0.0
26649 H91 79.6466 90.3604 30.108 H 0.0 **** 0.0
26650 H92 80.5378 92.3868 20.5594 H 0.0 **** 0.0
26651 H93 80.8556 92.8988 13.9431 H 0.0 **** 0.0
26652 H94 78.883 91.7728 12.8848 H 0.0 **** 0.0
26653 H95 79.9724 90.7716 11.8326 H 0.0 **** 0.0
26654 H96 79.8521 92.4765 11.5723 H 0.0 **** 0.0
26655 H97 77.7647 87.4588 14.6922 H 0.0 **** 0.0
26656 H98 78.5936 81.6101 20.9542 H 0.0 **** 0.0
26657 H99 83.2776 87.9526 12.0907 H 0.0 **** 0.0
26658 H100 78.3931 87.1811 18.9176 H 0.0 **** 0.0
26659 H101 79.5664 83.3106 21.7096 H 0.0 **** 0.0
26660 H102 81.8978 92.1152 12.7495 H 0.0 **** 0.0
26661 C1 29.3923 82.0037 61.3257 C 0.0 **** 0.0
26662 C2 29.9357 83.341 61.4262 C 0.0 **** 0.0
26663 C3 31.2312 83.5506 61.0029 C 0.0 **** 0.0
26664 C4 31.9905 82.5448 60.4432 C 0.0 **** 0.0
26665 C5 31.4439 81.2772 60.2505 C 0.0 **** 0.0
26666 C6 30.1692 80.9573 60.7936 C 0.0 **** 0.0
26667 C7 33.3568 83.0974 60.2583 C 0.0 **** 0.0
26668 C8 33.311 84.4785 60.5815 C 0.0 **** 0.0
26669 C9 31.9705 84.7932 61.1693 C 0.0 **** 0.0
26670 C10 34.3659 85.3284 60.3143 C 0.0 **** 0.0
26671 C11 35.5755 84.7414 59.8345 C 0.0 **** 0.0
26672 C12 35.6547 83.3118 59.7012 C 0.0 **** 0.0
26673 C13 34.5719 82.4399 59.8984 C 0.0 **** 0.0
26674 C14 34.7939 80.9354 59.9818 C 0.0 **** 0.0
26675 C15 36.1869 80.6426 60.5316 C 0.0 **** 0.0
26676 C16 37.2611 81.3449 59.6296 C 0.0 **** 0.0
26677 C17 36.9911 82.7928 59.3576 C 0.0 **** 0.0
26678 C18 37.9337 83.5975 58.7127 C 0.0 **** 0.0
26679 C19 37.7187 85.007 58.6768 C 0.0 **** 0.0
26680 C20 36.7178 85.5408 59.5536 C 0.0 **** 0.0
26681 C21 36.7377 86.8655 60.0494 C 0.0 **** 0.0
26682 C22 35.5341 87.5008 60.4246 C 0.0 **** 0.0
26683 C23 34.318 86.7386 60.5302 C 0.0 **** 0.0
26684 C24 38.3523 85.8626 57.5906 C 0.0 **** 0.0
26685 C25 39.4844 85.303 56.8669 C 0.0 **** 0.0
26686 C26 39.9004 83.9606 57.0724 C 0.0 **** 0.0
26687 C27 39.1797 83.0682 58.0756 C 0.0 **** 0.0
26688 C28 41.017 83.4591 56.3395 C 0.0 **** 0.0
26689 C29 41.7471 84.2642 55.4827 C 0.0 **** 0.0
26690 C30 41.3677 85.6174 55.3421 C 0.0 **** 0.0
26691 C31 40.1964 86.1134 55.9405 C 0.0 **** 0.0
26692 C32 42.0965 86.4956 54.3736 C 0.0 **** 0.0
26693 C33 43.3049 85.9886 53.6463 C 0.0 **** 0.0
26694 C34 43.2988 84.466 53.5077 C 0.0 **** 0.0
26695 C35 42.9926 83.7447 54.8354 C 0.0 **** 0.0
26696 C36 39.7458 87.4174 55.6289 C 0.0 **** 0.0
26697 C37 40.4387 88.2379 54.7146 C 0.0 **** 0.0
26698 C38 41.5659 87.7541 54.0389 C 0.0 **** 0.0
26699 C39 35.8171 88.8851 60.9888 C 0.0 **** 0.0
26700 C40 37.3059 88.8755 60.9514 C 0.0 **** 0.0
26701 C41 37.813 87.6665 60.4424 C 0.0 **** 0.0
26702 C42 39.1882 87.2914 60.5944 C 0.0 **** 0.0
26703 C43 40.085 88.2138 61.1708 C 0.0 **** 0.0
26704 C44 39.5751 89.4795 61.5846 C 0.0 **** 0.0
26705 C45 38.1808 89.806 61.5457 C 0.0 **** 0.0
26706 C46 37.748 90.9725 62.1472 C 0.0 **** 0.0
26707 C47 38.6522 91.9682 62.5447 C 0.0 **** 0.0
26708 C48 40.0021 91.713 62.4193 C 0.0 **** 0.0
26709 C49 40.4682 90.453 62.0587 C 0.0 **** 0.0
26710 C50 41.833 90.1989 62.131 C 0.0 **** 0.0
26711 C51 42.3175 88.9701 61.6558 C 0.0 **** 0.0
26712 C52 41.4297 87.9361 61.2964 C 0.0 **** 0.0
26713 O53 28.1623 81.7155 61.875 O 0.0 **** 0.0
26714 C54 29.667 79.5133 60.8235 C 0.0 **** 0.0
26715 O55 33.208 87.3226 61.0512 O 0.0 **** 0.0
26716 C56 38.097 93.2989 63.0327 C 0.0 **** 0.0
26717 C57 38.52 93.664 64.4815 C 0.0 **** 0.0
26718 O58 39.9692 89.537 54.3896 O 0.0 **** 0.0
26719 O59 41.3749 82.086 56.4013 O 0.0 **** 0.0
26720 O60 42.7343 91.1355 62.5975 O 0.0 **** 0.0
26721 H61 29.3775 84.1326 61.9146 H 0.0 **** 0.0
26722 H62 32.0126 80.4895 59.8694 H 0.0 **** 0.0
26723 H63 32.1274 85.0222 62.2612 H 0.0 **** 0.0
26724 H64 31.3989 85.6123 60.6785 H 0.0 **** 0.0
26725 H65 34.048 80.4538 60.7376 H 0.0 **** 0.0
26726 H66 34.6974 80.4758 58.9932 H 0.0 **** 0.0
26727 H67 36.3007 81.0586 61.5652 H 0.0 **** 0.0
26728 H68 36.3735 79.5475 60.6521 H 0.0 **** 0.0
26729 H69 38.1858 81.3123 60.2282 H 0.0 **** 0.0
26730 H70 37.4366 80.765 58.6804 H 0.0 **** 0.0
26731 H71 37.559 86.1788 56.8738 H 0.0 **** 0.0
26732 H72 38.9437 82.1339 57.5423 H 0.0 **** 0.0
26733 H73 43.3259 86.4063 52.6096 H 0.0 **** 0.0
26734 H74 44.2127 86.2532 54.2258 H 0.0 **** 0.0
26735 H75 42.4785 84.199 52.7476 H 0.0 **** 0.0
26736 H76 44.2438 84.0861 53.0427 H 0.0 **** 0.0
26737 H77 42.9575 82.6565 54.6594 H 0.0 **** 0.0
26738 H78 43.8025 83.9582 55.5142 H 0.0 **** 0.0
26739 H79 38.7951 87.7771 56.0104 H 0.0 **** 0.0
26740 H80 42.0416 88.4223 53.2952 H 0.0 **** 0.0
26741 H81 35.4132 89.676 60.3612 H 0.0 **** 0.0
26742 H82 35.4842 88.979 62.0351 H 0.0 **** 0.0
26743 H83 39.5364 86.328 60.3223 H 0.0 **** 0.0
26744 H84 36.6545 91.1667 62.2733 H 0.0 **** 0.0
26745 H85 40.6851 92.4734 62.7449 H 0.0 **** 0.0
26746 H86 43.4105 88.7437 61.6844 H 0.0 **** 0.0
26747 H87 41.7833 87.0025 60.907 H 0.0 **** 0.0
26748 H88 27.7525 82.5273 62.3365 H 0.0 **** 0.0
26749 H89 30.5129 78.7898 60.8158 H 0.0 **** 0.0
26750 H90 29.0449 79.282 59.9444 H 0.0 **** 0.0
26751 H91 28.9801 79.2823 61.6832 H 0.0 **** 0.0
26752 H92 33.3086 88.2547 61.3682 H 0.0 **** 0.0
26753 H93 38.4801 94.0605 62.2873 H 0.0 **** 0.0
26754 H94 37.9523 94.5584 64.8439 H 0.0 **** 0.0
26755 H95 39.6169 93.8721 64.4669 H 0.0 **** 0.0
26756 H96 38.3046 92.8118 65.2029 H 0.0 **** 0.0
26757 H97 40.3453 89.8352 53.5043 H 0.0 **** 0.0
26758 H98 40.9117 81.4753 57.0616 H 0.0 **** 0.0
26759 H99 42.5021 91.5215 63.506 H 0.0 **** 0.0
26760 H100 38.6736 86.7912 58.0648 H 0.0 **** 0.0
26761 H101 39.8776 82.8047 58.9446 H 0.0 **** 0.0
26762 H102 36.9814 93.3478 62.949 H 0.0 **** 0.0
26763 C1 75.6303 31.4877 69.2187 C 0.0 **** 0.0
26764 C2 75.9291 32.7494 68.7214 C 0.0 **** 0.0
26765 C3 77.1648 33.3064 68.9369 C 0.0 **** 0.0
26766 C4 78.0762 32.6984 69.7526 C 0.0 **** 0.0
26767 C5 77.8753 31.3946 70.2461 C 0.0 **** 0.0
26768 C6 76.6078 30.8158 69.9832 C 0.0 **** 0.0
26769 C7 79.1564 33.6904 70.0006 C 0.0 **** 0.0
26770 C8 78.8911 34.8207 69.2271 C 0.0 **** 0.0
26771 C9 77.5894 34.6648 68.4983 C 0.0 **** 0.0
26772 C10 79.7279 35.9736 69.3357 C 0.0 **** 0.0
26773 C11 80.9192 35.8493 70.1653 C 0.0 **** 0.0
26774 C12 81.2342 34.5913 70.7657 C 0.0 **** 0.0
26775 C13 80.3277 33.5418 70.7706 C 0.0 **** 0.0
26776 C14 80.5734 32.3614 71.6801 C 0.0 **** 0.0
26777 C15 81.6776 32.6291 72.7321 C 0.0 **** 0.0
26778 C16 82.9818 33.1879 72.0763 C 0.0 **** 0.0
26779 C17 82.6183 34.4274 71.3404 C 0.0 **** 0.0
26780 C18 83.5249 35.4234 71.0114 C 0.0 **** 0.0
26781 C19 83.1551 36.6918 70.4879 C 0.0 **** 0.0
26782 C20 81.8016 36.9445 70.2629 C 0.0 **** 0.0
26783 C21 81.2292 38.2058 69.9731 C 0.0 **** 0.0
26784 C22 80.2098 38.3358 69.0128 C 0.0 **** 0.0
26785 C23 79.4271 37.2109 68.66 C 0.0 **** 0.0
26786 C24 84.2603 37.6239 70.1172 C 0.0 **** 0.0
26787 C25 85.3546 36.922 69.4194 C 0.0 **** 0.0
26788 C26 85.7626 35.6621 69.9224 C 0.0 **** 0.0
26789 C27 85.0129 35.1932 71.1839 C 0.0 **** 0.0
26790 C28 86.7299 34.8846 69.3077 C 0.0 **** 0.0
26791 C29 87.199 35.3275 68.0553 C 0.0 **** 0.0
26792 C30 86.958 36.646 67.6208 C 0.0 **** 0.0
26793 C31 86.0548 37.4497 68.3135 C 0.0 **** 0.0
26794 C32 87.3844 37.1102 66.2822 C 0.0 **** 0.0
26795 C33 87.9708 36.1471 65.2882 C 0.0 **** 0.0
26796 C34 88.7858 35.0883 66.0468 C 0.0 **** 0.0
26797 C35 88.0574 34.3918 67.2654 C 0.0 **** 0.0
26798 C36 85.8933 38.8067 67.8936 C 0.0 **** 0.0
26799 C37 86.5233 39.321 66.7082 C 0.0 **** 0.0
26800 C38 87.2471 38.4623 65.8815 C 0.0 **** 0.0
26801 C39 79.9991 39.7899 68.606 C 0.0 **** 0.0
26802 C40 80.9947 40.4544 69.477 C 0.0 **** 0.0
26803 C41 81.6639 39.4978 70.2628 C 0.0 **** 0.0
26804 C42 82.6584 39.9214 71.1872 C 0.0 **** 0.0
26805 C43 83.3103 41.0969 70.8682 C 0.0 **** 0.0
26806 C44 82.7109 42.0047 70.0027 C 0.0 **** 0.0
26807 C45 81.4649 41.7318 69.4114 C 0.0 **** 0.0
26808 C46 80.8424 42.7688 68.6608 C 0.0 **** 0.0
26809 C47 81.4381 44.0099 68.4939 C 0.0 **** 0.0
26810 C48 82.6477 44.237 69.1029 C 0.0 **** 0.0
26811 C49 83.3391 43.2316 69.7351 C 0.0 **** 0.0
26812 C50 84.6993 43.4302 70.045 C 0.0 **** 0.0
26813 C51 85.3108 42.4761 70.8627 C 0.0 **** 0.0
26814 C52 84.6013 41.3355 71.2984 C 0.0 **** 0.0
26815 O53 74.4118 30.8532 68.9828 O 0.0 **** 0.0
26816 C54 76.2222 29.5347 70.5832 C 0.0 **** 0.0
26817 O55 78.4307 37.3424 67.6597 O 0.0 **** 0.0
26818 C56 80.7715 45.0536 67.6721 C 0.0 **** 0.0
26819 C57 80.425 46.2993 68.527 C 0.0 **** 0.0
26820 O58 86.4213 40.6312 66.3265 O 0.0 **** 0.0
26821 O59 87.2208 33.6868 69.8467 O 0.0 **** 0.0
26822 O60 85.3994 44.5723 69.6365 O 0.0 **** 0.0
26823 H61 75.2219 33.2059 68.0692 H 0.0 **** 0.0
26824 H62 78.6109 30.8708 70.835 H 0.0 **** 0.0
26825 H63 76.8762 35.4183 68.8643 H 0.0 **** 0.0
26826 H64 77.7517 34.7407 67.3881 H 0.0 **** 0.0
26827 H65 79.6124 32.1333 72.1682 H 0.0 **** 0.0
26828 H66 80.8436 31.5145 71.0692 H 0.0 **** 0.0
26829 H67 81.2497 33.3931 73.4464 H 0.0 **** 0.0
26830 H68 81.9734 31.6933 73.2167 H 0.0 **** 0.0
26831 H69 83.6744 33.315 72.9137 H 0.0 **** 0.0
26832 H70 83.3947 32.3895 71.3433 H 0.0 **** 0.0
26833 H71 83.8547 38.3638 69.3708 H 0.0 **** 0.0
26834 H72 85.1181 34.1256 71.3908 H 0.0 **** 0.0
26835 H73 87.0778 35.7122 64.8164 H 0.0 **** 0.0
26836 H74 88.5916 36.6891 64.5379 H 0.0 **** 0.0
26837 H75 89.18 34.2776 65.3426 H 0.0 **** 0.0
26838 H76 89.6411 35.6071 66.4955 H 0.0 **** 0.0
26839 H77 87.4671 33.548 66.8711 H 0.0 **** 0.0
26840 H78 88.8459 33.9667 67.887 H 0.0 **** 0.0
26841 H79 85.3834 39.5296 68.5066 H 0.0 **** 0.0
26842 H80 87.6 38.7924 64.9323 H 0.0 **** 0.0
26843 H81 80.2995 39.9668 67.5626 H 0.0 **** 0.0
26844 H82 78.9797 40.1063 68.8676 H 0.0 **** 0.0
26845 H83 83.0334 39.2757 71.9491 H 0.0 **** 0.0
26846 H84 79.886 42.6228 68.1029 H 0.0 **** 0.0
26847 H85 83.1643 45.1481 68.9491 H 0.0 **** 0.0
26848 H86 86.3582 42.4951 71.1878 H 0.0 **** 0.0
26849 H87 85.2009 40.5777 71.8257 H 0.0 **** 0.0
26850 H88 73.7996 31.4523 68.4774 H 0.0 **** 0.0
26851 H89 76.6895 28.6851 69.967 H 0.0 **** 0.0
26852 H90 75.1306 29.2846 70.6661 H 0.0 **** 0.0
26853 H91 76.6455 29.4067 71.5758 H 0.0 **** 0.0
26854 H92 78.2647 38.292 67.2801 H 0.0 **** 0.0
26855 H93 81.4081 45.367 66.7778 H 0.0 **** 0.0
26856 H94 81.346 46.7627 68.9923 H 0.0 **** 0.0
26857 H95 79.6938 46.0251 69.3376 H 0.0 **** 0.0
26858 H96 79.9511 47.0061 67.8061 H 0.0 **** 0.0
26859 H97 85.8332 41.2042 66.8559 H 0.0 **** 0.0
26860 H98 87.2275 33.7356 70.8744 H 0.0 **** 0.0
26861 H99 86.4019 44.5432 69.8343 H 0.0 **** 0.0
26862 H100 84.6765 38.1139 71.0505 H 0.0 **** 0.0
26863 H101 85.4076 35.7501 72.0653 H 0.0 **** 0.0
26864 H102 79.8261 44.695 67.2042 H 0.0 **** 0.0
26865 C1 104.587 68.6269 103.93 C 0.0 **** 0.0
26866 C2 103.463 69.2089 104.541 C 0.0 **** 0.0
26867 C3 103.383 70.5643 104.663 C 0.0 **** 0.0
26868 C4 104.315 71.351 104.118 C 0.0 **** 0.0
26869 C5 105.434 70.825 103.456 C 0.0 **** 0.0
26870 C6 105.648 69.4383 103.501 C 0.0 **** 0.0
26871 C7 103.906 72.7462 104.361 C 0.0 **** 0.0
26872 C8 102.625 72.757 104.928 C 0.0 **** 0.0
26873 C9 102.189 71.3279 105.17 C 0.0 **** 0.0
26874 C10 101.891 73.9214 105.072 C 0.0 **** 0.0
26875 C11 102.59 75.1672 104.806 C 0.0 **** 0.0
26876 C12 103.901 75.1462 104.365 C 0.0 **** 0.0
26877 C13 104.603 73.9282 104.14 C 0.0 **** 0.0
26878 C14 106.036 73.9411 103.714 C 0.0 **** 0.0
26879 C15 106.744 75.2265 104.146 C 0.0 **** 0.0
26880 C16 106.024 76.5131 103.808 C 0.0 **** 0.0
26881 C17 104.567 76.4295 104.09 C 0.0 **** 0.0
26882 C18 103.751 77.5904 103.872 C 0.0 **** 0.0
26883 C19 102.405 77.5755 104.268 C 0.0 **** 0.0
26884 C20 101.92 76.423 104.948 C 0.0 **** 0.0
26885 C21 100.642 76.4067 105.57 C 0.0 **** 0.0
26886 C22 99.9384 75.2392 105.715 C 0.0 **** 0.0
26887 C23 100.506 73.9652 105.44 C 0.0 **** 0.0
26888 C24 101.395 78.4893 103.54 C 0.0 **** 0.0
26889 C25 101.851 78.854 102.116 C 0.0 **** 0.0
26890 C26 103.206 78.8281 101.819 C 0.0 **** 0.0
26891 C27 104.187 78.7197 102.975 C 0.0 **** 0.0
26892 C28 103.59 78.8864 100.43 C 0.0 **** 0.0
26893 C29 102.604 78.9817 99.4042 C 0.0 **** 0.0
26894 C30 101.269 79.2065 99.7624 C 0.0 **** 0.0
26895 C31 100.853 79.1787 101.111 C 0.0 **** 0.0
26896 C32 100.279 79.4949 98.7212 C 0.0 **** 0.0
26897 C33 100.623 79.3319 97.2678 C 0.0 **** 0.0
26898 C34 102.075 79.7253 97.0539 C 0.0 **** 0.0
26899 C35 103.038 78.9264 97.9461 C 0.0 **** 0.0
26900 C36 99.5062 79.5588 101.412 C 0.0 **** 0.0
26901 C37 98.5624 79.8311 100.422 C 0.0 **** 0.0
26902 C38 98.9653 79.7793 99.073 C 0.0 **** 0.0
26903 C39 98.5648 75.5287 106.247 C 0.0 **** 0.0
26904 C40 98.6478 76.9785 106.487 C 0.0 **** 0.0
26905 C41 99.9112 77.4564 106.164 C 0.0 **** 0.0
26906 C42 100.287 78.7315 106.458 C 0.0 **** 0.0
26907 C43 99.3322 79.6721 106.877 C 0.0 **** 0.0
26908 C44 97.997 79.2368 107.138 C 0.0 **** 0.0
26909 C45 97.6645 77.8584 107.006 C 0.0 **** 0.0
26910 C46 96.3933 77.4127 107.388 C 0.0 **** 0.0
26911 C47 95.394 78.3515 107.773 C 0.0 **** 0.0
26912 C48 95.7115 79.7479 107.756 C 0.0 **** 0.0
26913 C49 97.0025 80.1741 107.415 C 0.0 **** 0.0
26914 C50 97.3416 81.5665 107.333 C 0.0 **** 0.0
26915 C51 98.6432 81.983 107.072 C 0.0 **** 0.0
26916 C52 99.6436 81.0237 106.895 C 0.0 **** 0.0
26917 O53 104.644 67.2444 103.779 O 0.0 **** 0.0
26918 C54 106.952 68.8441 103.086 C 0.0 **** 0.0
26919 O55 99.7393 72.7856 105.465 O 0.0 **** 0.0
26920 C56 94.095 77.8584 108.357 C 0.0 **** 0.0
26921 C57 94.3225 77.0608 109.551 C 0.0 **** 0.0
26922 O58 97.2483 80.201 100.764 O 0.0 **** 0.0
26923 O59 104.879 78.6808 100.0 O 0.0 **** 0.0
26924 O60 96.4159 82.5637 107.508 O 0.0 **** 0.0
26925 H61 102.596 68.5695 104.727 H 0.0 **** 0.0
26926 H62 106.126 71.4648 102.902 H 0.0 **** 0.0
26927 H63 101.995 71.1681 106.251 H 0.0 **** 0.0
26928 H64 101.328 71.0923 104.543 H 0.0 **** 0.0
26929 H65 106.636 73.1223 104.174 H 0.0 **** 0.0
26930 H66 106.06 73.8342 102.626 H 0.0 **** 0.0
26931 H67 106.923 75.1858 105.256 H 0.0 **** 0.0
26932 H68 107.741 75.2632 103.696 H 0.0 **** 0.0
26933 H69 106.459 77.3405 104.401 H 0.0 **** 0.0
26934 H70 106.269 76.6805 102.77 H 0.0 **** 0.0
26935 H71 100.458 77.9277 103.436 H 0.0 **** 0.0
26936 H72 105.218 78.5999 102.616 H 0.0 **** 0.0
26937 H73 100.521 78.2595 97.0054 H 0.0 **** 0.0
26938 H74 99.9004 79.9755 96.6865 H 0.0 **** 0.0
26939 H75 102.369 79.5777 96.0031 H 0.0 **** 0.0
26940 H76 102.234 80.8193 97.2508 H 0.0 **** 0.0
26941 H77 103.015 77.8551 97.6326 H 0.0 **** 0.0
26942 H78 104.078 79.2823 97.7659 H 0.0 **** 0.0
26943 H79 99.1735 79.5678 102.468 H 0.0 **** 0.0
26944 H80 98.2443 80.0078 98.3272 H 0.0 **** 0.0
26945 H81 97.8204 75.3136 105.461 H 0.0 **** 0.0
26946 H82 98.4345 74.9625 107.221 H 0.0 **** 0.0
26947 H83 101.287 79.0198 106.346 H 0.0 **** 0.0
26948 H84 96.1538 76.3672 107.339 H 0.0 **** 0.0
26949 H85 94.9074 80.4565 107.974 H 0.0 **** 0.0
26950 H86 98.8862 83.0361 106.963 H 0.0 **** 0.0
26951 H87 100.645 81.358 106.67 H 0.0 **** 0.0
26952 H88 103.714 66.8036 103.86 H 0.0 **** 0.0
26953 H89 106.945 67.7119 103.222 H 0.0 **** 0.0
26954 H90 107.766 69.2402 103.705 H 0.0 **** 0.0
26955 H91 107.264 69.0791 102.059 H 0.0 **** 0.0
26956 H92 98.7356 72.8955 105.61 H 0.0 **** 0.0
26957 H93 93.4441 78.7379 108.633 H 0.0 **** 0.0
26958 H94 93.4429 76.3881 109.754 H 0.0 **** 0.0
26959 H95 94.4923 77.6155 110.454 H 0.0 **** 0.0
26960 H96 95.1964 76.3314 109.467 H 0.0 **** 0.0
26961 H97 97.0748 80.1122 101.761 H 0.0 **** 0.0
26962 H98 105.607 78.6185 100.658 H 0.0 **** 0.0
26963 H99 95.5172 82.338 107.114 H 0.0 **** 0.0
26964 H100 101.23 79.3938 104.113 H 0.0 **** 0.0
26965 H101 104.155 79.6822 103.616 H 0.0 **** 0.0
26966 H102 93.4828 77.2762 107.645 H 0.0 **** 0.0
26967 C1 25.0697 51.9115 80.4844 C 0.0 **** 0.0
26968 C2 23.623 52.0475 80.4886 C 0.0 **** 0.0
26969 C3 22.8786 50.9208 80.1031 C 0.0 **** 0.0
26970 C4 23.4653 49.7796 79.6398 C 0.0 **** 0.0
26971 C5 24.884 49.6033 79.6668 C 0.0 **** 0.0
26972 C6 25.6523 50.7011 80.0468 C 0.0 **** 0.0
26973 C7 22.397 48.7875 79.3349 C 0.0 **** 0.0
26974 C8 21.169 49.3301 79.718 C 0.0 **** 0.0
26975 C9 21.3936 50.7416 80.2588 C 0.0 **** 0.0
26976 C10 19.9729 48.6052 79.5505 C 0.0 **** 0.0
26977 C11 20.0546 47.3224 78.9007 C 0.0 **** 0.0
26978 C12 21.2713 46.874 78.3504 C 0.0 **** 0.0
26979 C13 22.4278 47.7047 78.4372 C 0.0 **** 0.0
26980 C14 23.7256 47.3083 77.7186 C 0.0 **** 0.0
26981 C15 23.4817 46.4665 76.4865 C 0.0 **** 0.0
26982 C16 22.6532 45.2378 76.8906 C 0.0 **** 0.0
26983 C17 21.3243 45.6829 77.497 C 0.0 **** 0.0
26984 C18 20.0519 45.1314 77.1628 C 0.0 **** 0.0
26985 C19 18.8352 45.6304 77.6594 C 0.0 **** 0.0
26986 C20 18.8634 46.5699 78.6512 C 0.0 **** 0.0
26987 C21 17.7194 47.0355 79.3243 C 0.0 **** 0.0
26988 C22 17.6638 48.2649 79.8725 C 0.0 **** 0.0
26989 C23 18.7412 49.0875 80.0277 C 0.0 **** 0.0
26990 C24 17.5521 45.4387 76.802 C 0.0 **** 0.0
26991 C25 17.49 44.0576 76.1542 C 0.0 **** 0.0
26992 C26 18.7174 43.3221 75.9446 C 0.0 **** 0.0
26993 C27 20.0381 43.9857 76.2071 C 0.0 **** 0.0
26994 C28 18.6812 42.0043 75.4347 C 0.0 **** 0.0
26995 C29 17.4611 41.478 74.9091 C 0.0 **** 0.0
26996 C30 16.2616 42.1976 75.0804 C 0.0 **** 0.0
26997 C31 16.2531 43.4784 75.7216 C 0.0 **** 0.0
26998 C32 15.0362 41.7232 74.3812 C 0.0 **** 0.0
26999 C33 15.023 40.371 73.6595 C 0.0 **** 0.0
27000 C34 16.3276 39.8411 73.2846 C 0.0 **** 0.0
27001 C35 17.4689 40.0785 74.2963 C 0.0 **** 0.0
27002 C36 14.9954 44.1386 75.888 C 0.0 **** 0.0
27003 C37 13.8294 43.5554 75.3581 C 0.0 **** 0.0
27004 C38 13.8221 42.3705 74.5679 C 0.0 **** 0.0
27005 C39 16.3587 48.553 80.5161 C 0.0 **** 0.0
27006 C40 15.6721 47.2727 80.264 C 0.0 **** 0.0
27007 C41 16.5642 46.3586 79.6732 C 0.0 **** 0.0
27008 C42 16.2883 45.013 79.7403 C 0.0 **** 0.0
27009 C43 15.0731 44.6379 80.2646 C 0.0 **** 0.0
27010 C44 14.1845 45.5334 80.9003 C 0.0 **** 0.0
27011 C45 14.5097 46.8795 80.8926 C 0.0 **** 0.0
27012 C46 13.6605 47.8089 81.4868 C 0.0 **** 0.0
27013 C47 12.4562 47.4194 82.0387 C 0.0 **** 0.0
27014 C48 12.1441 46.075 82.0432 C 0.0 **** 0.0
27015 C49 12.9663 45.1131 81.4751 C 0.0 **** 0.0
27016 C50 12.642 43.7481 81.4716 C 0.0 **** 0.0
27017 C51 13.5316 42.8692 80.8374 C 0.0 **** 0.0
27018 C52 14.6868 43.2775 80.2003 C 0.0 **** 0.0
27019 O53 25.8787 52.9569 80.8806 O 0.0 **** 0.0
27020 C54 27.1674 50.5667 80.0026 C 0.0 **** 0.0
27021 O55 18.7309 50.3404 80.6891 O 0.0 **** 0.0
27022 C56 11.4542 48.442 82.4575 C 0.0 **** 0.0
27023 C57 11.0018 49.2288 81.2481 C 0.0 **** 0.0
27024 O58 12.6146 44.1638 75.6138 O 0.0 **** 0.0
27025 O59 19.8366 41.1539 75.3377 O 0.0 **** 0.0
27026 O60 11.5151 43.222 82.0166 O 0.0 **** 0.0
27027 H61 23.1538 52.9986 80.7643 H 0.0 **** 0.0
27028 H62 25.3456 48.6768 79.4344 H 0.0 **** 0.0
27029 H63 20.8382 51.5129 79.7049 H 0.0 **** 0.0
27030 H64 21.1381 50.7615 81.3685 H 0.0 **** 0.0
27031 H65 24.2861 48.1943 77.4612 H 0.0 **** 0.0
27032 H66 24.2967 46.6982 78.4608 H 0.0 **** 0.0
27033 H67 22.9739 47.041 75.6968 H 0.0 **** 0.0
27034 H68 24.4253 46.1067 76.0445 H 0.0 **** 0.0
27035 H69 22.5238 44.6231 75.9831 H 0.0 **** 0.0
27036 H70 23.1544 44.5761 77.6333 H 0.0 **** 0.0
27037 H71 16.5998 45.7198 77.3189 H 0.0 **** 0.0
27038 H72 20.7211 43.2257 76.6104 H 0.0 **** 0.0
27039 H73 14.4881 39.6118 74.2244 H 0.0 **** 0.0
27040 H74 14.501 40.4511 72.7009 H 0.0 **** 0.0
27041 H75 16.2397 38.7281 73.1653 H 0.0 **** 0.0
27042 H76 16.7257 40.1488 72.3183 H 0.0 **** 0.0
27043 H77 17.3041 39.3219 75.1209 H 0.0 **** 0.0
27044 H78 18.4632 39.8532 73.8221 H 0.0 **** 0.0
27045 H79 14.8059 44.9873 76.5427 H 0.0 **** 0.0
27046 H80 12.9044 41.968 74.1749 H 0.0 **** 0.0
27047 H81 16.4899 48.72 81.5693 H 0.0 **** 0.0
27048 H82 15.7979 49.368 79.9782 H 0.0 **** 0.0
27049 H83 16.9793 44.2443 79.2951 H 0.0 **** 0.0
27050 H84 13.8917 48.8644 81.3753 H 0.0 **** 0.0
27051 H85 11.2224 45.8091 82.5088 H 0.0 **** 0.0
27052 H86 13.2423 41.8388 80.7795 H 0.0 **** 0.0
27053 H87 15.2942 42.5562 79.638 H 0.0 **** 0.0
27054 H88 25.4864 53.8673 81.0035 H 0.0 **** 0.0
27055 H89 27.4381 50.3663 78.959 H 0.0 **** 0.0
27056 H90 27.5034 49.6795 80.5871 H 0.0 **** 0.0
27057 H91 27.727 51.4517 80.3313 H 0.0 **** 0.0
27058 H92 17.8365 50.6545 81.0551 H 0.0 **** 0.0
27059 H93 10.5418 48.0072 82.9284 H 0.0 **** 0.0
27060 H94 10.5178 50.1647 81.6297 H 0.0 **** 0.0
27061 H95 10.2608 48.6343 80.6532 H 0.0 **** 0.0
27062 H96 11.8555 49.5721 80.6316 H 0.0 **** 0.0
27063 H97 11.8228 43.8166 75.0348 H 0.0 **** 0.0
27064 H98 20.7449 41.5016 75.6048 H 0.0 **** 0.0
27065 H99 11.1496 43.7408 82.8364 H 0.0 **** 0.0
27066 H100 17.5734 46.1519 75.9484 H 0.0 **** 0.0
27067 H101 20.4725 44.309 75.2303 H 0.0 **** 0.0
27068 H102 11.9002 49.1802 83.1864 H 0.0 **** 0.0
27069 C1 52.7963 82.4905 19.0174 C 0.0 **** 0.0
27070 C2 53.9673 83.2527 19.2916 C 0.0 **** 0.0
27071 C3 54.9575 83.3713 18.3201 C 0.0 **** 0.0
27072 C4 54.7718 82.895 17.029 C 0.0 **** 0.0
27073 C5 53.6096 82.2386 16.7082 C 0.0 **** 0.0
27074 C6 52.6652 81.9398 17.7219 C 0.0 **** 0.0
27075 C7 55.9879 83.201 16.2513 C 0.0 **** 0.0
27076 C8 56.7741 84.01 17.0765 C 0.0 **** 0.0
27077 C9 56.2061 84.139 18.4167 C 0.0 **** 0.0
27078 C10 57.8149 84.7962 16.543 C 0.0 **** 0.0
27079 C11 58.1034 84.6382 15.1566 C 0.0 **** 0.0
27080 C12 57.361 83.7237 14.3557 C 0.0 **** 0.0
27081 C13 56.2592 83.0309 14.8656 C 0.0 **** 0.0
27082 C14 55.3528 82.1964 13.9726 C 0.0 **** 0.0
27083 C15 56.0094 81.7829 12.6587 C 0.0 **** 0.0
27084 C16 56.6983 82.9378 11.9628 C 0.0 **** 0.0
27085 C17 57.6981 83.6515 12.8699 C 0.0 **** 0.0
27086 C18 58.7391 84.4645 12.3595 C 0.0 **** 0.0
27087 C19 59.3199 85.4376 13.1601 C 0.0 **** 0.0
27088 C20 59.1994 85.3603 14.572 C 0.0 **** 0.0
27089 C21 60.0879 86.0135 15.44 C 0.0 **** 0.0
27090 C22 59.713 86.2955 16.767 C 0.0 **** 0.0
27091 C23 58.589 85.7481 17.3311 C 0.0 **** 0.0
27092 C24 59.8485 86.6893 12.443 C 0.0 **** 0.0
27093 C25 60.7464 86.3482 11.2676 C 0.0 **** 0.0
27094 C26 60.5827 85.0856 10.6712 C 0.0 **** 0.0
27095 C27 59.2785 84.3005 10.9188 C 0.0 **** 0.0
27096 C28 61.676 84.5597 9.91202 C 0.0 **** 0.0
27097 C29 62.8412 85.4064 9.68404 C 0.0 **** 0.0
27098 C30 62.8162 86.7324 10.1251 C 0.0 **** 0.0
27099 C31 61.7258 87.2474 10.8008 C 0.0 **** 0.0
27100 C32 63.956 87.6232 9.84343 C 0.0 **** 0.0
27101 C33 65.2824 87.0513 9.37948 C 0.0 **** 0.0
27102 C34 65.3672 85.5421 9.53614 C 0.0 **** 0.0
27103 C35 64.0898 84.8944 8.97479 C 0.0 **** 0.0
27104 C36 61.6187 88.6422 11.0533 C 0.0 **** 0.0
27105 C37 62.7551 89.4887 10.8149 C 0.0 **** 0.0
27106 C38 63.9223 88.9654 10.2218 C 0.0 **** 0.0
27107 C39 60.8434 86.9455 17.5224 C 0.0 **** 0.0
27108 C40 62.0004 86.7855 16.5132 C 0.0 **** 0.0
27109 C41 61.4942 86.2497 15.35 C 0.0 **** 0.0
27110 C42 62.3475 85.9905 14.275 C 0.0 **** 0.0
27111 C43 63.7375 86.2978 14.404 C 0.0 **** 0.0
27112 C44 64.2356 86.7756 15.6293 C 0.0 **** 0.0
27113 C45 63.3784 87.0403 16.6889 C 0.0 **** 0.0
27114 C46 63.8541 87.5201 17.8813 C 0.0 **** 0.0
27115 C47 65.2466 87.6152 18.1445 C 0.0 **** 0.0
27116 C48 66.1397 87.4567 17.04 C 0.0 **** 0.0
27117 C49 65.6502 87.1132 15.7878 C 0.0 **** 0.0
27118 C50 66.495 87.092 14.6452 C 0.0 **** 0.0
27119 C51 65.9619 86.6379 13.4279 C 0.0 **** 0.0
27120 C52 64.6425 86.1487 13.3348 C 0.0 **** 0.0
27121 O53 51.8007 82.3596 19.9698 O 0.0 **** 0.0
27122 C54 51.5549 80.9828 17.3862 C 0.0 **** 0.0
27123 O55 58.2374 86.0884 18.6567 O 0.0 **** 0.0
27124 C56 65.662 87.9758 19.5429 C 0.0 **** 0.0
27125 C57 66.5854 89.1938 19.6072 C 0.0 **** 0.0
27126 O58 62.7251 90.8403 11.2745 O 0.0 **** 0.0
27127 O59 61.5065 83.278 9.33277 O 0.0 **** 0.0
27128 O60 67.7923 87.693 14.6347 O 0.0 **** 0.0
27129 H61 54.1095 83.7101 20.2212 H 0.0 **** 0.0
27130 H62 53.4708 81.883 15.7226 H 0.0 **** 0.0
27131 H63 56.9235 83.6128 19.0981 H 0.0 **** 0.0
27132 H64 55.956 85.2219 18.6303 H 0.0 **** 0.0
27133 H65 55.1224 81.2514 14.5105 H 0.0 **** 0.0
27134 H66 54.4378 82.81 13.8044 H 0.0 **** 0.0
27135 H67 56.7668 81.0039 12.7844 H 0.0 **** 0.0
27136 H68 55.2443 81.4002 11.951 H 0.0 **** 0.0
27137 H69 57.2241 82.4465 11.1265 H 0.0 **** 0.0
27138 H70 55.9698 83.6621 11.5716 H 0.0 **** 0.0
27139 H71 58.9362 87.2224 12.0612 H 0.0 **** 0.0
27140 H72 58.5222 84.7265 10.2098 H 0.0 **** 0.0
27141 H73 65.4711 87.3094 8.34789 H 0.0 **** 0.0
27142 H74 66.1115 87.54 9.98019 H 0.0 **** 0.0
27143 H75 66.2641 85.1558 9.00786 H 0.0 **** 0.0
27144 H76 65.4204 85.3166 10.5999 H 0.0 **** 0.0
27145 H77 63.9875 85.1648 7.92677 H 0.0 **** 0.0
27146 H78 64.2103 83.7881 9.09004 H 0.0 **** 0.0
27147 H79 60.7499 89.062 11.5302 H 0.0 **** 0.0
27148 H80 64.7853 89.5844 10.1227 H 0.0 **** 0.0
27149 H81 60.5576 88.0172 17.6572 H 0.0 **** 0.0
27150 H82 61.0566 86.4398 18.432 H 0.0 **** 0.0
27151 H83 62.0411 85.3712 13.4726 H 0.0 **** 0.0
27152 H84 63.1949 87.6113 18.6701 H 0.0 **** 0.0
27153 H85 67.2058 87.651 17.2144 H 0.0 **** 0.0
27154 H86 66.5614 86.6143 12.5222 H 0.0 **** 0.0
27155 H87 64.2895 85.8514 12.362 H 0.0 **** 0.0
27156 H88 52.1193 82.6887 20.8782 H 0.0 **** 0.0
27157 H89 51.9586 79.9863 17.1449 H 0.0 **** 0.0
27158 H90 50.9436 81.353 16.5474 H 0.0 **** 0.0
27159 H91 50.8479 80.8321 18.2534 H 0.0 **** 0.0
27160 H92 58.7127 86.8648 19.0501 H 0.0 **** 0.0
27161 H93 64.8203 88.1295 20.2006 H 0.0 **** 0.0
27162 H94 66.7652 89.4549 20.673 H 0.0 **** 0.0
27163 H95 66.0561 90.0757 19.1724 H 0.0 **** 0.0
27164 H96 67.4936 88.9772 19.0753 H 0.0 **** 0.0
27165 H97 61.8594 91.0975 11.784 H 0.0 **** 0.0
27166 H98 62.196 83.0331 8.64109 H 0.0 **** 0.0
27167 H99 67.9452 88.4851 15.2931 H 0.0 **** 0.0
27168 H100 60.3576 87.3894 13.157 H 0.0 **** 0.0
27169 H101 59.4822 83.2148 10.7719 H 0.0 **** 0.0
27170 H102 66.2057 87.0998 19.9449 H 0.0 **** 0.0
27171 C1 105.226 63.7132 56.4087 C 0.0 **** 0.0
27172 C2 105.374 65.0848 56.7047 C 0.0 **** 0.0
27173 C3 104.28 65.9106 56.6533 C 0.0 **** 0.0
27174 C4 103.039 65.4418 56.2111 C 0.0 **** 0.0
27175 C5 102.893 64.0808 55.8982 C 0.0 **** 0.0
27176 C6 103.954 63.2098 56.0365 C 0.0 **** 0.0
27177 C7 102.017 66.4412 56.5066 C 0.0 **** 0.0
27178 C8 102.707 67.4796 57.1756 C 0.0 **** 0.0
27179 C9 104.172 67.268 57.2209 C 0.0 **** 0.0
27180 C10 101.988 68.5438 57.7825 C 0.0 **** 0.0
27181 C11 100.574 68.5445 57.7129 C 0.0 **** 0.0
27182 C12 99.942 67.534 56.9819 C 0.0 **** 0.0
27183 C13 100.66 66.4735 56.3465 C 0.0 **** 0.0
27184 C14 99.9186 65.4383 55.4751 C 0.0 **** 0.0
27185 C15 98.6108 66.0417 54.952 C 0.0 **** 0.0
27186 C16 97.6923 66.5385 56.0751 C 0.0 **** 0.0
27187 C17 98.4338 67.5492 56.9197 C 0.0 **** 0.0
27188 C18 97.7222 68.3713 57.8218 C 0.0 **** 0.0
27189 C19 98.3911 69.3924 58.5352 C 0.0 **** 0.0
27190 C20 99.7963 69.5979 58.3327 C 0.0 **** 0.0
27191 C21 100.526 70.7094 58.8395 C 0.0 **** 0.0
27192 C22 101.893 70.5435 59.0272 C 0.0 **** 0.0
27193 C23 102.674 69.5678 58.4432 C 0.0 **** 0.0
27194 C24 97.6854 70.1578 59.6287 C 0.0 **** 0.0
27195 C25 96.2552 69.6708 59.9865 C 0.0 **** 0.0
27196 C26 95.588 68.7092 59.2703 C 0.0 **** 0.0
27197 C27 96.2678 68.0198 58.083 C 0.0 **** 0.0
27198 C28 94.2339 68.3678 59.6242 C 0.0 **** 0.0
27199 C29 93.6575 68.8757 60.7851 C 0.0 **** 0.0
27200 C30 94.4266 69.705 61.605 C 0.0 **** 0.0
27201 C31 95.6959 70.1284 61.1801 C 0.0 **** 0.0
27202 C32 93.9097 70.1622 62.9106 C 0.0 **** 0.0
27203 C33 92.5105 69.7667 63.3575 C 0.0 **** 0.0
27204 C34 91.6072 69.5155 62.1569 C 0.0 **** 0.0
27205 C35 92.2335 68.5409 61.132 C 0.0 **** 0.0
27206 C36 96.4361 71.0467 62.0101 C 0.0 **** 0.0
27207 C37 95.9815 71.3312 63.3144 C 0.0 **** 0.0
27208 C38 94.7314 70.8747 63.7747 C 0.0 **** 0.0
27209 C39 102.477 71.635 59.7654 C 0.0 **** 0.0
27210 C40 101.373 72.6437 59.6515 C 0.0 **** 0.0
27211 C41 100.236 72.0615 59.1466 C 0.0 **** 0.0
27212 C42 99.1168 72.8643 58.8722 C 0.0 **** 0.0
27213 C43 99.0671 74.1923 59.4198 C 0.0 **** 0.0
27214 C44 100.223 74.7454 60.046 C 0.0 **** 0.0
27215 C45 101.41 73.9524 60.1335 C 0.0 **** 0.0
27216 C46 102.592 74.5055 60.6605 C 0.0 **** 0.0
27217 C47 102.637 75.8865 60.9885 C 0.0 **** 0.0
27218 C48 101.469 76.6482 60.9054 C 0.0 **** 0.0
27219 C49 100.236 76.0796 60.4986 C 0.0 **** 0.0
27220 C50 99.0017 76.8043 60.4875 C 0.0 **** 0.0
27221 C51 97.8534 76.251 59.867 C 0.0 **** 0.0
27222 C52 97.9334 74.9938 59.2946 C 0.0 **** 0.0
27223 O53 106.362 62.898 56.508 O 0.0 **** 0.0
27224 C54 103.621 61.7256 55.9745 C 0.0 **** 0.0
27225 O55 104.058 69.6105 58.5118 O 0.0 **** 0.0
27226 C56 103.82 76.3895 61.7904 C 0.0 **** 0.0
27227 C57 103.411 76.6201 63.2601 C 0.0 **** 0.0
27228 O58 96.8005 71.9382 64.2397 O 0.0 **** 0.0
27229 O59 93.4816 67.4531 58.842 O 0.0 **** 0.0
27230 O60 98.8713 77.9931 61.16 O 0.0 **** 0.0
27231 H61 106.354 65.4518 57.0313 H 0.0 **** 0.0
27232 H62 101.921 63.6636 55.6601 H 0.0 **** 0.0
27233 H63 104.753 67.929 56.5656 H 0.0 **** 0.0
27234 H64 104.603 67.293 58.2559 H 0.0 **** 0.0
27235 H65 100.52 65.2354 54.5452 H 0.0 **** 0.0
27236 H66 99.7106 64.5149 56.0728 H 0.0 **** 0.0
27237 H67 98.7595 66.8753 54.2368 H 0.0 **** 0.0
27238 H68 98.111 65.3069 54.3816 H 0.0 **** 0.0
27239 H69 96.8222 67.0501 55.6315 H 0.0 **** 0.0
27240 H70 97.4016 65.6873 56.7365 H 0.0 **** 0.0
27241 H71 98.3411 70.1788 60.4835 H 0.0 **** 0.0
27242 H72 96.2151 66.8972 58.2894 H 0.0 **** 0.0
27243 H73 92.6015 68.8445 63.9327 H 0.0 **** 0.0
27244 H74 92.0612 70.5497 63.9964 H 0.0 **** 0.0
27245 H75 90.6107 69.1068 62.5246 H 0.0 **** 0.0
27246 H76 91.3913 70.4888 61.7046 H 0.0 **** 0.0
27247 H77 92.1961 67.5049 61.4188 H 0.0 **** 0.0
27248 H78 91.6877 68.5642 60.1341 H 0.0 **** 0.0
27249 H79 97.357 71.4986 61.706 H 0.0 **** 0.0
27250 H80 94.442 71.0644 64.7907 H 0.0 **** 0.0
27251 H81 102.65 71.4139 60.8555 H 0.0 **** 0.0
27252 H82 103.382 72.0525 59.2368 H 0.0 **** 0.0
27253 H83 98.438 72.6297 58.0446 H 0.0 **** 0.0
27254 H84 103.5 73.8901 60.8243 H 0.0 **** 0.0
27255 H85 101.503 77.6991 61.2653 H 0.0 **** 0.0
27256 H86 96.8958 76.7907 59.9379 H 0.0 **** 0.0
27257 H87 96.9949 74.5999 58.9455 H 0.0 **** 0.0
27258 H88 107.229 63.3688 56.708 H 0.0 **** 0.0
27259 H89 103.252 61.4377 54.9662 H 0.0 **** 0.0
27260 H90 102.742 61.4409 56.6632 H 0.0 **** 0.0
27261 H91 104.533 61.1254 56.2689 H 0.0 **** 0.0
27262 H92 104.485 70.1875 59.2307 H 0.0 **** 0.0
27263 H93 104.683 75.6865 61.8032 H 0.0 **** 0.0
27264 H94 104.182 77.1515 63.8334 H 0.0 **** 0.0
27265 H95 103.129 75.6229 63.6053 H 0.0 **** 0.0
27266 H96 102.451 77.1806 63.3517 H 0.0 **** 0.0
27267 H97 97.5598 72.4698 63.8019 H 0.0 **** 0.0
27268 H98 93.7839 67.3896 57.891 H 0.0 **** 0.0
27269 H99 99.3989 78.0904 62.0387 H 0.0 **** 0.0
27270 H100 97.5259 71.2022 59.2815 H 0.0 **** 0.0
27271 H101 95.6284 68.2439 57.1694 H 0.0 **** 0.0
27272 H102 104.218 77.2993 61.3672 H 0.0 **** 0.0
27273 C1 53.2806 -1.93254 41.1232 C 0.0 **** 0.0
27274 C2 54.3078 -1.37761 40.3726 C 0.0 **** 0.0
27275 C3 54.1904 -0.110993 39.8582 C 0.0 **** 0.0
27276 C4 53.0388 0.62032 39.9702 C 0.0 **** 0.0
27277 C5 51.9202 0.0867733 40.7121 C 0.0 **** 0.0
27278 C6 52.0455 -1.2191 41.2683 C 0.0 **** 0.0
27279 C7 53.2199 1.92916 39.3045 C 0.0 **** 0.0
27280 C8 54.5513 1.93454 38.8359 C 0.0 **** 0.0
27281 C9 55.2381 0.648151 39.1865 C 0.0 **** 0.0
27282 C10 55.1808 3.13952 38.4088 C 0.0 **** 0.0
27283 C11 54.3893 4.33724 38.4805 C 0.0 **** 0.0
27284 C12 53.0331 4.29372 38.8742 C 0.0 **** 0.0
27285 C13 52.3986 3.06612 39.1976 C 0.0 **** 0.0
27286 C14 50.9337 3.11372 39.5987 C 0.0 **** 0.0
27287 C15 50.2185 4.28511 38.9091 C 0.0 **** 0.0
27288 C16 50.8473 5.66085 39.2659 C 0.0 **** 0.0
27289 C17 52.3305 5.58556 39.1061 C 0.0 **** 0.0
27290 C18 53.0948 6.74137 39.3128 C 0.0 **** 0.0
27291 C19 54.4486 6.76492 38.9746 C 0.0 **** 0.0
27292 C20 55.02 5.63841 38.3604 C 0.0 **** 0.0
27293 C21 56.3297 5.6649 37.8007 C 0.0 **** 0.0
27294 C22 57.108 4.50569 37.7977 C 0.0 **** 0.0
27295 C23 56.5747 3.2582 38.1086 C 0.0 **** 0.0
27296 C24 55.3371 7.76652 39.7253 C 0.0 **** 0.0
27297 C25 54.8297 9.14746 39.6257 C 0.0 **** 0.0
27298 C26 53.4136 9.25568 39.8534 C 0.0 **** 0.0
27299 C27 52.496 8.01485 39.8944 C 0.0 **** 0.0
27300 C28 52.8124 10.5048 40.0496 C 0.0 **** 0.0
27301 C29 53.5508 11.6817 39.7904 C 0.0 **** 0.0
27302 C30 54.9526 11.583 39.613 C 0.0 **** 0.0
27303 C31 55.6301 10.3245 39.545 C 0.0 **** 0.0
27304 C32 55.7968 12.8459 39.5412 C 0.0 **** 0.0
27305 C33 55.1254 14.1861 39.4761 C 0.0 **** 0.0
27306 C34 53.6807 14.0889 38.9752 C 0.0 **** 0.0
27307 C35 52.9139 13.0807 39.8307 C 0.0 **** 0.0
27308 C36 57.0604 10.3436 39.4125 C 0.0 **** 0.0
27309 C37 57.8163 11.534 39.4446 C 0.0 **** 0.0
27310 C38 57.1994 12.7538 39.4915 C 0.0 **** 0.0
27311 C39 58.5161 4.82356 37.3786 C 0.0 **** 0.0
27312 C40 58.4158 6.29718 37.109 C 0.0 **** 0.0
27313 C41 57.1254 6.73305 37.3219 C 0.0 **** 0.0
27314 C42 56.7806 8.07138 36.9821 C 0.0 **** 0.0
27315 C43 57.758 8.95826 36.4602 C 0.0 **** 0.0
27316 C44 59.0454 8.47193 36.1997 C 0.0 **** 0.0
27317 C45 59.398 7.14196 36.5978 C 0.0 **** 0.0
27318 C46 60.6677 6.62163 36.2422 C 0.0 **** 0.0
27319 C47 61.5299 7.38306 35.3939 C 0.0 **** 0.0
27320 C48 61.1592 8.66954 35.0334 C 0.0 **** 0.0
27321 C49 59.9874 9.28661 35.4724 C 0.0 **** 0.0
27322 C50 59.6469 10.6327 35.1579 C 0.0 **** 0.0
27323 C51 58.335 11.1129 35.4861 C 0.0 **** 0.0
27324 C52 57.4327 10.2841 36.1605 C 0.0 **** 0.0
27325 O53 53.358 -3.22771 41.6067 O 0.0 **** 0.0
27326 C54 50.8349 -1.77577 41.9412 C 0.0 **** 0.0
27327 O55 57.3494 2.11264 37.9716 O 0.0 **** 0.0
27328 C56 62.6907 6.66196 34.7024 C 0.0 **** 0.0
27329 C57 64.0601 7.22376 34.9652 C 0.0 **** 0.0
27330 O58 59.215 11.5295 39.6332 O 0.0 **** 0.0
27331 O59 51.5 10.5112 40.5524 O 0.0 **** 0.0
27332 O60 60.5542 11.6115 34.7 O 0.0 **** 0.0
27333 H61 55.1881 -2.02784 40.2053 H 0.0 **** 0.0
27334 H62 50.9891 0.660135 40.78 H 0.0 **** 0.0
27335 H63 55.6116 0.153479 38.3221 H 0.0 **** 0.0
27336 H64 56.0649 0.823219 39.894 H 0.0 **** 0.0
27337 H65 50.463 2.1699 39.2923 H 0.0 **** 0.0
27338 H66 50.9002 3.20432 40.713 H 0.0 **** 0.0
27339 H67 50.17 4.25312 37.8021 H 0.0 **** 0.0
27340 H68 49.1414 4.30134 39.2926 H 0.0 **** 0.0
27341 H69 50.3779 6.48875 38.6443 H 0.0 **** 0.0
27342 H70 50.6186 5.90767 40.3299 H 0.0 **** 0.0
27343 H71 55.2763 7.42953 40.7744 H 0.0 **** 0.0
27344 H72 52.2219 7.85693 40.9728 H 0.0 **** 0.0
27345 H73 55.0813 14.62 40.5041 H 0.0 **** 0.0
27346 H74 55.7177 14.8884 38.8505 H 0.0 **** 0.0
27347 H75 53.2391 15.0908 38.9667 H 0.0 **** 0.0
27348 H76 53.7292 13.7793 37.9006 H 0.0 **** 0.0
27349 H77 52.7864 13.4444 40.8712 H 0.0 **** 0.0
27350 H78 51.8705 12.9697 39.4063 H 0.0 **** 0.0
27351 H79 57.5683 9.4096 39.3096 H 0.0 **** 0.0
27352 H80 57.7622 13.6416 39.5878 H 0.0 **** 0.0
27353 H81 59.2419 4.62442 38.2201 H 0.0 **** 0.0
27354 H82 58.7543 4.27327 36.4484 H 0.0 **** 0.0
27355 H83 55.7854 8.42347 37.1985 H 0.0 **** 0.0
27356 H84 60.9718 5.58127 36.5283 H 0.0 **** 0.0
27357 H85 61.8151 9.19336 34.3406 H 0.0 **** 0.0
27358 H86 58.0535 12.1674 35.3855 H 0.0 **** 0.0
27359 H87 56.4841 10.7172 36.4823 H 0.0 **** 0.0
27360 H88 54.2843 -3.63715 41.5583 H 0.0 **** 0.0
27361 H89 50.7522 -1.39384 43.0051 H 0.0 **** 0.0
27362 H90 50.7693 -2.87609 41.8502 H 0.0 **** 0.0
27363 H91 49.8756 -1.37572 41.4888 H 0.0 **** 0.0
27364 H92 58.2428 2.28215 37.5532 H 0.0 **** 0.0
27365 H93 62.7138 5.57777 35.0316 H 0.0 **** 0.0
27366 H94 64.7829 6.7695 34.2441 H 0.0 **** 0.0
27367 H95 64.4257 6.99706 35.9858 H 0.0 **** 0.0
27368 H96 64.1172 8.32844 34.7772 H 0.0 **** 0.0
27369 H97 59.6365 10.6438 39.8118 H 0.0 **** 0.0
27370 H98 51.1186 11.3733 40.9052 H 0.0 **** 0.0
27371 H99 61.5578 11.3463 34.7276 H 0.0 **** 0.0
27372 H100 56.4092 7.64541 39.4877 H 0.0 **** 0.0
27373 H101 51.5162 8.26842 39.4081 H 0.0 **** 0.0
27374 H102 62.4358 6.62041 33.6134 H 0.0 **** 0.0
27375 C1 51.3226 38.8357 81.0587 C 0.0 **** 0.0
27376 C2 50.9382 40.0898 81.4643 C 0.0 **** 0.0
27377 C3 51.1306 40.444 82.7687 C 0.0 **** 0.0
27378 C4 51.5395 39.5728 83.731 C 0.0 **** 0.0
27379 C5 52.0178 38.3327 83.3603 C 0.0 **** 0.0
27380 C6 51.9073 37.9376 81.9918 C 0.0 **** 0.0
27381 C7 51.5802 40.2514 85.0382 C 0.0 **** 0.0
27382 C8 51.0688 41.5325 84.7744 C 0.0 **** 0.0
27383 C9 50.8061 41.7584 83.3238 C 0.0 **** 0.0
27384 C10 50.7234 42.3765 85.8259 C 0.0 **** 0.0
27385 C11 50.9513 41.9706 87.165 C 0.0 **** 0.0
27386 C12 51.5515 40.6906 87.4385 C 0.0 **** 0.0
27387 C13 51.8286 39.7923 86.3504 C 0.0 **** 0.0
27388 C14 52.2205 38.3925 86.6119 C 0.0 **** 0.0
27389 C15 51.7788 37.8755 87.9858 C 0.0 **** 0.0
27390 C16 52.3085 38.8119 89.0884 C 0.0 **** 0.0
27391 C17 51.7423 40.2253 88.8916 C 0.0 **** 0.0
27392 C18 51.5184 41.174 89.9136 C 0.0 **** 0.0
27393 C19 51.0308 42.4548 89.6153 C 0.0 **** 0.0
27394 C20 50.4899 42.7355 88.2691 C 0.0 **** 0.0
27395 C21 49.5749 43.8 87.9972 C 0.0 **** 0.0
27396 C22 49.4617 44.3239 86.6978 C 0.0 **** 0.0
27397 C23 50.0915 43.6356 85.5939 C 0.0 **** 0.0
27398 C24 51.4922 43.5865 90.4578 C 0.0 **** 0.0
27399 C25 52.0707 43.2648 91.8143 C 0.0 **** 0.0
27400 C26 52.0352 41.9867 92.3059 C 0.0 **** 0.0
27401 C27 51.7505 40.8029 91.367 C 0.0 **** 0.0
27402 C28 52.3304 41.7659 93.6895 C 0.0 **** 0.0
27403 C29 52.621 42.8482 94.5432 C 0.0 **** 0.0
27404 C30 52.8019 44.1052 94.0057 C 0.0 **** 0.0
27405 C31 52.6102 44.2933 92.6249 C 0.0 **** 0.0
27406 C32 53.0821 45.2607 94.8769 C 0.0 **** 0.0
27407 C33 53.2906 45.0505 96.3465 C 0.0 **** 0.0
27408 C34 52.5123 43.8627 96.8608 C 0.0 **** 0.0
27409 C35 52.7885 42.6239 95.9975 C 0.0 **** 0.0
27410 C36 52.8863 45.5579 92.1039 C 0.0 **** 0.0
27411 C37 53.3203 46.6536 92.9062 C 0.0 **** 0.0
27412 C38 53.315 46.5127 94.3024 C 0.0 **** 0.0
27413 C39 48.5068 45.4792 86.6511 C 0.0 **** 0.0
27414 C40 48.048 45.5111 88.0558 C 0.0 **** 0.0
27415 C41 48.6014 44.4674 88.771 C 0.0 **** 0.0
27416 C42 48.1062 44.0795 90.018 C 0.0 **** 0.0
27417 C43 47.0295 44.8148 90.5603 C 0.0 **** 0.0
27418 C44 46.5075 45.9585 89.8838 C 0.0 **** 0.0
27419 C45 47.0151 46.3045 88.5839 C 0.0 **** 0.0
27420 C46 46.4619 47.4469 87.9246 C 0.0 **** 0.0
27421 C47 45.4085 48.2096 88.4625 C 0.0 **** 0.0
27422 C48 44.9066 47.7914 89.7181 C 0.0 **** 0.0
27423 C49 45.4823 46.7249 90.4953 C 0.0 **** 0.0
27424 C50 44.9991 46.3573 91.7867 C 0.0 **** 0.0
27425 C51 45.4532 45.2068 92.4036 C 0.0 **** 0.0
27426 C52 46.4792 44.4611 91.8422 C 0.0 **** 0.0
27427 O53 51.0982 38.4636 79.7345 O 0.0 **** 0.0
27428 C54 52.4383 36.6256 81.54 C 0.0 **** 0.0
27429 O55 49.8976 44.0815 84.2823 O 0.0 **** 0.0
27430 C56 44.7431 49.375 87.7364 C 0.0 **** 0.0
27431 C57 45.5933 50.6443 87.5495 C 0.0 **** 0.0
27432 O58 53.6093 47.9132 92.3606 O 0.0 **** 0.0
27433 O59 52.3053 40.5066 94.2611 O 0.0 **** 0.0
27434 O60 44.1186 47.1598 92.4839 O 0.0 **** 0.0
27435 H61 50.5751 40.8146 80.7915 H 0.0 **** 0.0
27436 H62 52.5705 37.7191 84.0728 H 0.0 **** 0.0
27437 H63 49.7159 41.9314 83.1582 H 0.0 **** 0.0
27438 H64 51.4703 42.6142 82.9469 H 0.0 **** 0.0
27439 H65 51.6877 37.7348 85.9614 H 0.0 **** 0.0
27440 H66 53.3008 38.1935 86.4771 H 0.0 **** 0.0
27441 H67 50.6946 37.9208 88.0316 H 0.0 **** 0.0
27442 H68 52.1576 36.8334 88.1277 H 0.0 **** 0.0
27443 H69 51.9801 38.4146 90.0951 H 0.0 **** 0.0
27444 H70 53.4137 38.8815 89.0306 H 0.0 **** 0.0
27445 H71 52.2606 44.1079 89.8272 H 0.0 **** 0.0
27446 H72 52.6078 40.1413 91.434 H 0.0 **** 0.0
27447 H73 54.358 44.8944 96.5684 H 0.0 **** 0.0
27448 H74 52.963 45.9272 96.8954 H 0.0 **** 0.0
27449 H75 52.7225 43.6653 97.9265 H 0.0 **** 0.0
27450 H76 51.4369 44.1185 96.7768 H 0.0 **** 0.0
27451 H77 53.8088 42.1976 96.2407 H 0.0 **** 0.0
27452 H78 52.0961 41.8836 96.2452 H 0.0 **** 0.0
27453 H79 52.7572 45.7403 91.052 H 0.0 **** 0.0
27454 H80 53.6449 47.3182 94.9193 H 0.0 **** 0.0
27455 H81 49.0095 46.43 86.3969 H 0.0 **** 0.0
27456 H82 47.6862 45.2454 85.9378 H 0.0 **** 0.0
27457 H83 48.492 43.2176 90.5427 H 0.0 **** 0.0
27458 H84 46.8096 47.711 86.9435 H 0.0 **** 0.0
27459 H85 44.0723 48.3309 90.1819 H 0.0 **** 0.0
27460 H86 45.0579 44.933 93.3845 H 0.0 **** 0.0
27461 H87 46.8426 43.5819 92.4107 H 0.0 **** 0.0
27462 H88 50.6711 39.23 79.1792 H 0.0 **** 0.0
27463 H89 53.5487 36.5831 81.7024 H 0.0 **** 0.0
27464 H90 52.1213 36.5084 80.4792 H 0.0 **** 0.0
27465 H91 51.9807 35.8783 82.2162 H 0.0 **** 0.0
27466 H92 49.5271 45.03 84.2159 H 0.0 **** 0.0
27467 H93 44.4018 48.9491 86.7514 H 0.0 **** 0.0
27468 H94 45.0997 51.1964 86.6695 H 0.0 **** 0.0
27469 H95 46.588 50.3809 87.21 H 0.0 **** 0.0
27470 H96 45.6333 51.3065 88.4629 H 0.0 **** 0.0
27471 H97 53.7185 47.927 91.3492 H 0.0 **** 0.0
27472 H98 52.4407 39.7413 93.6351 H 0.0 **** 0.0
27473 H99 44.2637 48.1169 92.2461 H 0.0 **** 0.0
27474 H100 50.7082 44.3193 90.6376 H 0.0 **** 0.0
27475 H101 50.8395 40.3491 91.7245 H 0.0 **** 0.0
27476 H102 43.846 49.6451 88.3556 H 0.0 **** 0.0
27477 C1 97.0071 80.546 16.5333 C 0.0 **** 0.0
27478 C2 97.0059 79.8386 15.3207 C 0.0 **** 0.0
27479 C3 96.4797 78.5815 15.2699 C 0.0 **** 0.0
27480 C4 96.0554 77.9161 16.3953 C 0.0 **** 0.0
27481 C5 95.948 78.6289 17.6268 C 0.0 **** 0.0
27482 C6 96.3947 79.9658 17.6893 C 0.0 **** 0.0
27483 C7 95.5246 76.6402 15.9323 C 0.0 **** 0.0
27484 C8 95.4617 76.6596 14.5518 C 0.0 **** 0.0
27485 C9 96.0415 77.9097 14.02 C 0.0 **** 0.0
27486 C10 94.8641 75.5953 13.8415 C 0.0 **** 0.0
27487 C11 94.2404 74.5284 14.6268 C 0.0 **** 0.0
27488 C12 94.3649 74.5425 16.0303 C 0.0 **** 0.0
27489 C13 95.1288 75.5451 16.6893 C 0.0 **** 0.0
27490 C14 95.388 75.4495 18.1691 C 0.0 **** 0.0
27491 C15 95.3479 74.0044 18.6586 C 0.0 **** 0.0
27492 C16 93.9979 73.3467 18.3073 C 0.0 **** 0.0
27493 C17 93.6439 73.4831 16.8134 C 0.0 **** 0.0
27494 C18 92.6205 72.7671 16.1768 C 0.0 **** 0.0
27495 C19 92.4853 72.8556 14.7641 C 0.0 **** 0.0
27496 C20 93.5253 73.4937 14.004 C 0.0 **** 0.0
27497 C21 93.648 73.3929 12.6048 C 0.0 **** 0.0
27498 C22 94.1763 74.478 11.8489 C 0.0 **** 0.0
27499 C23 94.781 75.5952 12.4532 C 0.0 **** 0.0
27500 C24 91.1325 72.4953 14.1483 C 0.0 **** 0.0
27501 C25 90.5763 71.2467 14.6875 C 0.0 **** 0.0
27502 C26 90.7319 71.0222 16.1059 C 0.0 **** 0.0
27503 C27 91.6285 71.922 16.9401 C 0.0 **** 0.0
27504 C28 90.1383 69.8724 16.6916 C 0.0 **** 0.0
27505 C29 89.5561 68.9005 15.9011 C 0.0 **** 0.0
27506 C30 89.5732 69.0079 14.4982 C 0.0 **** 0.0
27507 C31 89.9776 70.252 13.8958 C 0.0 **** 0.0
27508 C32 89.0546 67.906 13.6482 C 0.0 **** 0.0
27509 C33 88.6883 66.5989 14.2666 C 0.0 **** 0.0
27510 C34 89.1237 66.4521 15.7294 C 0.0 **** 0.0
27511 C35 88.8734 67.7557 16.5471 C 0.0 **** 0.0
27512 C36 89.7685 70.3861 12.5305 C 0.0 **** 0.0
27513 C37 89.2128 69.3595 11.7814 C 0.0 **** 0.0
27514 C38 88.8953 68.1239 12.3347 C 0.0 **** 0.0
27515 C39 94.1052 74.1578 10.3999 C 0.0 **** 0.0
27516 C40 93.7008 72.7203 10.4543 C 0.0 **** 0.0
27517 C41 93.3717 72.297 11.7249 C 0.0 **** 0.0
27518 C42 93.0971 70.9386 12.0294 C 0.0 **** 0.0
27519 C43 92.8622 70.0844 10.9311 C 0.0 **** 0.0
27520 C44 93.0723 70.5283 9.58333 C 0.0 **** 0.0
27521 C45 93.6132 71.8175 9.37437 C 0.0 **** 0.0
27522 C46 94.1116 72.1972 8.09292 C 0.0 **** 0.0
27523 C47 93.9229 71.3276 6.98786 C 0.0 **** 0.0
27524 C48 93.3651 70.0846 7.2293 C 0.0 **** 0.0
27525 C49 93.0009 69.6028 8.4769 C 0.0 **** 0.0
27526 C50 92.5456 68.271 8.75404 C 0.0 **** 0.0
27527 C51 92.2044 67.8993 10.0935 C 0.0 **** 0.0
27528 C52 92.5044 68.7809 11.1627 C 0.0 **** 0.0
27529 O53 97.5001 81.8279 16.5556 O 0.0 **** 0.0
27530 C54 96.2525 80.8575 18.8642 C 0.0 **** 0.0
27531 O55 95.3772 76.6201 11.6819 O 0.0 **** 0.0
27532 C56 94.3239 71.821 5.63504 C 0.0 **** 0.0
27533 C57 95.835 72.0488 5.56773 C 0.0 **** 0.0
27534 O58 88.8868 69.5387 10.4342 O 0.0 **** 0.0
27535 O59 89.957 69.7906 18.0719 O 0.0 **** 0.0
27536 O60 92.3353 67.3059 7.77824 O 0.0 **** 0.0
27537 H61 97.3739 80.2984 14.4127 H 0.0 **** 0.0
27538 H62 95.5685 78.233 18.5122 H 0.0 **** 0.0
27539 H63 96.9223 77.7539 13.3324 H 0.0 **** 0.0
27540 H64 95.2755 78.5585 13.5592 H 0.0 **** 0.0
27541 H65 96.427 75.8063 18.3887 H 0.0 **** 0.0
27542 H66 94.6493 76.0899 18.7387 H 0.0 **** 0.0
27543 H67 96.1339 73.4519 18.1156 H 0.0 **** 0.0
27544 H68 95.5254 73.9242 19.7326 H 0.0 **** 0.0
27545 H69 94.0172 72.2695 18.6451 H 0.0 **** 0.0
27546 H70 93.2298 73.8857 18.8832 H 0.0 **** 0.0
27547 H71 90.3815 73.275 14.3571 H 0.0 **** 0.0
27548 H72 91.0125 72.54 17.585 H 0.0 **** 0.0
27549 H73 87.5887 66.5394 14.1291 H 0.0 **** 0.0
27550 H74 89.1162 65.735 13.6825 H 0.0 **** 0.0
27551 H75 88.5818 65.6168 16.2005 H 0.0 **** 0.0
27552 H76 90.2065 66.215 15.7044 H 0.0 **** 0.0
27553 H77 87.8342 68.0213 16.6547 H 0.0 **** 0.0
27554 H78 89.2435 67.6112 17.5934 H 0.0 **** 0.0
27555 H79 89.9281 71.3277 12.0161 H 0.0 **** 0.0
27556 H80 88.4711 67.3589 11.6953 H 0.0 **** 0.0
27557 H81 93.3857 74.7947 9.92953 H 0.0 **** 0.0
27558 H82 95.0946 74.1751 9.85973 H 0.0 **** 0.0
27559 H83 93.0369 70.5209 13.0064 H 0.0 **** 0.0
27560 H84 94.5357 73.132 7.93117 H 0.0 **** 0.0
27561 H85 93.2113 69.4847 6.35876 H 0.0 **** 0.0
27562 H86 91.7837 66.9183 10.317 H 0.0 **** 0.0
27563 H87 92.2856 68.3902 12.171 H 0.0 **** 0.0
27564 H88 97.9331 82.1549 15.6826 H 0.0 **** 0.0
27565 H89 95.7706 81.7921 18.6114 H 0.0 **** 0.0
27566 H90 97.2536 81.0521 19.2316 H 0.0 **** 0.0
27567 H91 95.6357 80.3529 19.6482 H 0.0 **** 0.0
27568 H92 95.483 76.396 10.7162 H 0.0 **** 0.0
27569 H93 94.0582 70.9928 4.90681 H 0.0 **** 0.0
27570 H94 96.1341 72.837 6.22566 H 0.0 **** 0.0
27571 H95 96.17 72.3582 4.6027 H 0.0 **** 0.0
27572 H96 96.2776 71.0693 5.83189 H 0.0 **** 0.0
27573 H97 89.0813 70.4471 10.0608 H 0.0 **** 0.0
27574 H98 90.241 70.622 18.6103 H 0.0 **** 0.0
27575 H99 92.3475 67.5957 6.82777 H 0.0 **** 0.0
27576 H100 91.2321 72.6372 13.0643 H 0.0 **** 0.0
27577 H101 92.2053 71.2633 17.5588 H 0.0 **** 0.0
27578 H102 93.7191 72.75 5.32226 H 0.0 **** 0.0
27579 C1 49.7492 36.7962 25.01 C 0.0 **** 0.0
27580 C2 50.958 37.0534 24.3692 C 0.0 **** 0.0
27581 C3 51.081 36.8976 22.9982 C 0.0 **** 0.0
27582 C4 50.1003 36.2848 22.2738 C 0.0 **** 0.0
27583 C5 48.8452 36.0137 22.873 C 0.0 **** 0.0
27584 C6 48.6773 36.2779 24.2669 C 0.0 **** 0.0
27585 C7 50.4488 36.3548 20.8454 C 0.0 **** 0.0
27586 C8 51.6719 37.0546 20.7376 C 0.0 **** 0.0
27587 C9 52.1096 37.4722 22.1092 C 0.0 **** 0.0
27588 C10 52.2867 37.3055 19.4851 C 0.0 **** 0.0
27589 C11 51.611 36.8246 18.3155 C 0.0 **** 0.0
27590 C12 50.3909 36.1165 18.4066 C 0.0 **** 0.0
27591 C13 49.8697 35.7692 19.684 C 0.0 **** 0.0
27592 C14 48.7266 34.788 19.8341 C 0.0 **** 0.0
27593 C15 48.6025 33.9067 18.6129 C 0.0 **** 0.0
27594 C16 48.562 34.764 17.348 C 0.0 **** 0.0
27595 C17 49.7228 35.698 17.2344 C 0.0 **** 0.0
27596 C18 50.0812 36.2203 16.0006 C 0.0 **** 0.0
27597 C19 51.3351 36.9243 15.8485 C 0.0 **** 0.0
27598 C20 52.1534 37.1076 17.0193 C 0.0 **** 0.0
27599 C21 53.4318 37.7606 16.9903 C 0.0 **** 0.0
27600 C22 53.9928 38.3463 18.0987 C 0.0 **** 0.0
27601 C23 53.4204 38.129 19.3745 C 0.0 **** 0.0
27602 C24 51.3651 37.8634 14.6393 C 0.0 **** 0.0
27603 C25 50.9205 37.1154 13.3931 C 0.0 **** 0.0
27604 C26 49.6177 36.5361 13.5177 C 0.0 **** 0.0
27605 C27 49.0355 36.3612 14.9023 C 0.0 **** 0.0
27606 C28 48.9281 36.0585 12.4006 C 0.0 **** 0.0
27607 C29 49.6089 35.9947 11.1715 C 0.0 **** 0.0
27608 C30 50.8938 36.5073 11.0209 C 0.0 **** 0.0
27609 C31 51.5212 37.1966 12.0794 C 0.0 **** 0.0
27610 C32 51.5705 36.4836 9.71029 C 0.0 **** 0.0
27611 C33 51.1161 35.5107 8.62879 C 0.0 **** 0.0
27612 C34 50.0643 34.5558 9.18819 C 0.0 **** 0.0
27613 C35 49.0024 35.2606 10.0249 C 0.0 **** 0.0
27614 C36 52.6837 37.8835 11.8594 C 0.0 **** 0.0
27615 C37 53.2945 37.9172 10.5965 C 0.0 **** 0.0
27616 C38 52.7047 37.3056 9.50818 C 0.0 **** 0.0
27617 C39 55.2421 39.1413 17.7731 C 0.0 **** 0.0
27618 C40 55.4474 38.6981 16.3507 C 0.0 **** 0.0
27619 C41 54.3761 37.852 15.9922 C 0.0 **** 0.0
27620 C42 54.4604 37.0735 14.8751 C 0.0 **** 0.0
27621 C43 55.5345 37.2044 14.0061 C 0.0 **** 0.0
27622 C44 56.5176 38.192 14.2791 C 0.0 **** 0.0
27623 C45 56.4774 38.9295 15.5013 C 0.0 **** 0.0
27624 C46 57.4322 39.9384 15.7441 C 0.0 **** 0.0
27625 C47 58.4266 40.2361 14.7658 C 0.0 **** 0.0
27626 C48 58.5068 39.4415 13.6313 C 0.0 **** 0.0
27627 C49 57.5733 38.4162 13.3884 C 0.0 **** 0.0
27628 C50 57.639 37.5597 12.2474 C 0.0 **** 0.0
27629 C51 56.6584 36.5987 12.0083 C 0.0 **** 0.0
27630 C52 55.6486 36.393 12.9013 C 0.0 **** 0.0
27631 O53 49.6314 36.9671 26.3751 O 0.0 **** 0.0
27632 C54 47.3557 35.954 24.8617 C 0.0 **** 0.0
27633 O55 53.9426 38.8342 20.4612 O 0.0 **** 0.0
27634 C56 59.415 41.3946 15.0601 C 0.0 **** 0.0
27635 C57 59.2341 42.601 14.0747 C 0.0 **** 0.0
27636 O58 54.5056 38.5368 10.3999 O 0.0 **** 0.0
27637 O59 47.5824 35.6261 12.5033 O 0.0 **** 0.0
27638 O60 58.7801 37.6358 11.4613 O 0.0 **** 0.0
27639 H61 51.7921 37.5166 24.8876 H 0.0 **** 0.0
27640 H62 48.0195 35.706 22.2241 H 0.0 **** 0.0
27641 H63 53.1414 37.1106 22.3216 H 0.0 **** 0.0
27642 H64 52.1077 38.5998 22.1396 H 0.0 **** 0.0
27643 H65 48.8823 34.1982 20.7334 H 0.0 **** 0.0
27644 H66 47.8328 35.3831 20.0269 H 0.0 **** 0.0
27645 H67 49.4043 33.1495 18.5466 H 0.0 **** 0.0
27646 H68 47.6498 33.3936 18.6933 H 0.0 **** 0.0
27647 H69 48.5567 34.0522 16.4877 H 0.0 **** 0.0
27648 H70 47.6232 35.3993 17.2988 H 0.0 **** 0.0
27649 H71 50.5913 38.6107 14.8267 H 0.0 **** 0.0
27650 H72 48.4416 37.2383 15.1623 H 0.0 **** 0.0
27651 H73 50.7488 36.039 7.73695 H 0.0 **** 0.0
27652 H74 51.9603 34.9257 8.22215 H 0.0 **** 0.0
27653 H75 49.5811 34.0295 8.35267 H 0.0 **** 0.0
27654 H76 50.5461 33.7865 9.80985 H 0.0 **** 0.0
27655 H77 48.5015 35.998 9.3794 H 0.0 **** 0.0
27656 H78 48.2721 34.5048 10.3883 H 0.0 **** 0.0
27657 H79 53.1831 38.388 12.621 H 0.0 **** 0.0
27658 H80 53.1638 37.2845 8.49599 H 0.0 **** 0.0
27659 H81 54.9988 40.2594 17.889 H 0.0 **** 0.0
27660 H82 56.1076 38.7794 18.3572 H 0.0 **** 0.0
27661 H83 53.7052 36.3057 14.6593 H 0.0 **** 0.0
27662 H84 57.4238 40.5444 16.5775 H 0.0 **** 0.0
27663 H85 59.323 39.6781 12.9524 H 0.0 **** 0.0
27664 H86 56.6395 36.0392 11.0707 H 0.0 **** 0.0
27665 H87 54.8914 35.685 12.6471 H 0.0 **** 0.0
27666 H88 50.5076 37.3307 26.7535 H 0.0 **** 0.0
27667 H89 47.4046 35.0404 25.5056 H 0.0 **** 0.0
27668 H90 46.6189 35.7804 24.0678 H 0.0 **** 0.0
27669 H91 46.9916 36.781 25.4685 H 0.0 **** 0.0
27670 H92 54.683 39.4378 20.2552 H 0.0 **** 0.0
27671 H93 59.2802 41.7727 16.0695 H 0.0 **** 0.0
27672 H94 59.8431 43.4652 14.4144 H 0.0 **** 0.0
27673 H95 58.1216 42.8887 14.0542 H 0.0 **** 0.0
27674 H96 59.5571 42.3717 13.0484 H 0.0 **** 0.0
27675 H97 54.8974 38.9177 11.263 H 0.0 **** 0.0
27676 H98 47.0895 36.0168 13.2892 H 0.0 **** 0.0
27677 H99 59.679 37.7226 11.9983 H 0.0 **** 0.0
27678 H100 52.2778 38.4479 14.5252 H 0.0 **** 0.0
27679 H101 48.4779 35.4328 14.9561 H 0.0 **** 0.0
27680 H102 60.4359 41.0054 15.0445 H 0.0 **** 0.0
27681 C1 94.2172 24.1161 9.38198 C 0.0 **** 0.0
27682 C2 94.8886 24.9962 8.54081 C 0.0 **** 0.0
27683 C3 94.2795 25.3892 7.34469 C 0.0 **** 0.0
27684 C4 92.9868 25.0461 7.03165 C 0.0 **** 0.0
27685 C5 92.2411 24.2378 7.95053 C 0.0 **** 0.0
27686 C6 92.8616 23.7428 9.09025 C 0.0 **** 0.0
27687 C7 92.6603 25.7343 5.75135 C 0.0 **** 0.0
27688 C8 93.7745 26.4128 5.30951 C 0.0 **** 0.0
27689 C9 94.8764 26.3105 6.33306 C 0.0 **** 0.0
27690 C10 93.8289 27.0353 4.00487 C 0.0 **** 0.0
27691 C11 92.5855 27.0375 3.253 C 0.0 **** 0.0
27692 C12 91.4242 26.3246 3.71557 C 0.0 **** 0.0
27693 C13 91.4773 25.6424 4.96656 C 0.0 **** 0.0
27694 C14 90.3017 24.777 5.4179 C 0.0 **** 0.0
27695 C15 89.3779 24.4092 4.26485 C 0.0 **** 0.0
27696 C16 88.9564 25.6475 3.42357 C 0.0 **** 0.0
27697 C17 90.1542 26.4552 2.96494 C 0.0 **** 0.0
27698 C18 90.0152 27.4848 2.03884 C 0.0 **** 0.0
27699 C19 91.2043 28.1399 1.53899 C 0.0 **** 0.0
27700 C20 92.4695 27.7248 2.02551 C 0.0 **** 0.0
27701 C21 93.667 28.0751 1.41502 C 0.0 **** 0.0
27702 C22 94.8848 28.1535 2.09261 C 0.0 **** 0.0
27703 C23 94.9815 27.669 3.44581 C 0.0 **** 0.0
27704 C24 90.9699 29.4782 0.823559 C 0.0 **** 0.0
27705 C25 89.6148 30.1592 1.1338 C 0.0 **** 0.0
27706 C26 88.4838 29.3716 1.34907 C 0.0 **** 0.0
27707 C27 88.681 27.892 1.45831 C 0.0 **** 0.0
27708 C28 87.2237 29.9342 1.74043 C 0.0 **** 0.0
27709 C29 87.2091 31.3063 2.05518 C 0.0 **** 0.0
27710 C30 88.2915 32.1189 1.69725 C 0.0 **** 0.0
27711 C31 89.4606 31.5575 1.12668 C 0.0 **** 0.0
27712 C32 88.2568 33.6188 1.89852 C 0.0 **** 0.0
27713 C33 87.1963 34.198 2.8305 C 0.0 **** 0.0
27714 C34 85.8962 33.4337 2.82452 C 0.0 **** 0.0
27715 C35 85.9918 31.8793 2.79151 C 0.0 **** 0.0
27716 C36 90.4899 32.4355 0.674704 C 0.0 **** 0.0
27717 C37 90.3785 33.8348 0.710101 C 0.0 **** 0.0
27718 C38 89.3026 34.4135 1.40537 C 0.0 **** 0.0
27719 C39 95.9661 28.5169 1.1456 C 0.0 **** 0.0
27720 C40 95.1925 28.5693 -0.178164 C 0.0 **** 0.0
27721 C41 93.8699 28.2249 0.0633317 C 0.0 **** 0.0
27722 C42 93.0501 27.8639 -1.0533 C 0.0 **** 0.0
27723 C43 93.6082 27.909 -2.36668 C 0.0 **** 0.0
27724 C44 94.9542 28.2982 -2.58686 C 0.0 **** 0.0
27725 C45 95.7439 28.6373 -1.48994 C 0.0 **** 0.0
27726 C46 97.1204 28.7626 -1.65577 C 0.0 **** 0.0
27727 C47 97.7265 28.6919 -2.9299 C 0.0 **** 0.0
27728 C48 96.9089 28.4795 -4.05817 C 0.0 **** 0.0
27729 C49 95.5153 28.235 -3.91201 C 0.0 **** 0.0
27730 C50 94.7159 27.9025 -4.99639 C 0.0 **** 0.0
27731 C51 93.4447 27.3622 -4.74115 C 0.0 **** 0.0
27732 C52 92.8768 27.3471 -3.44989 C 0.0 **** 0.0
27733 O53 94.9222 23.642 10.4698 O 0.0 **** 0.0
27734 C54 92.1028 22.7033 9.86759 C 0.0 **** 0.0
27735 O55 96.1925 27.7462 4.14288 O 0.0 **** 0.0
27736 C56 99.2389 28.6353 -3.05603 C 0.0 **** 0.0
27737 C57 99.8098 29.9068 -3.66764 C 0.0 **** 0.0
27738 O58 91.3287 34.6606 0.0320747 O 0.0 **** 0.0
27739 O59 86.0972 29.1401 1.92066 O 0.0 **** 0.0
27740 O60 95.095 28.0882 -6.33449 O 0.0 **** 0.0
27741 H61 95.8638 25.3828 8.85218 H 0.0 **** 0.0
27742 H62 91.23 23.9552 7.77263 H 0.0 **** 0.0
27743 H63 95.7942 25.8575 5.90116 H 0.0 **** 0.0
27744 H64 95.112 27.3177 6.74724 H 0.0 **** 0.0
27745 H65 90.7184 23.7962 5.76306 H 0.0 **** 0.0
27746 H66 89.806 25.3435 6.24166 H 0.0 **** 0.0
27747 H67 89.8715 23.746 3.49585 H 0.0 **** 0.0
27748 H68 88.4794 23.9392 4.69494 H 0.0 **** 0.0
27749 H69 88.3525 25.2452 2.52747 H 0.0 **** 0.0
27750 H70 88.343 26.3302 4.03925 H 0.0 **** 0.0
27751 H71 91.8193 30.1395 1.14087 H 0.0 **** 0.0
27752 H72 87.9136 27.4144 2.11492 H 0.0 **** 0.0
27753 H73 87.6327 34.1495 3.87917 H 0.0 **** 0.0
27754 H74 87.0172 35.2897 2.61965 H 0.0 **** 0.0
27755 H75 85.3535 33.7738 3.73534 H 0.0 **** 0.0
27756 H76 85.2879 33.709 1.97851 H 0.0 **** 0.0
27757 H77 86.021 31.484 3.81498 H 0.0 **** 0.0
27758 H78 85.0559 31.5244 2.30663 H 0.0 **** 0.0
27759 H79 91.3385 31.9852 0.147611 H 0.0 **** 0.0
27760 H80 89.2007 35.5107 1.49764 H 0.0 **** 0.0
27761 H81 96.4253 29.5124 1.29493 H 0.0 **** 0.0
27762 H82 96.8012 27.767 1.13819 H 0.0 **** 0.0
27763 H83 92.1372 27.3485 -0.85977 H 0.0 **** 0.0
27764 H84 97.7655 28.8669 -0.79249 H 0.0 **** 0.0
27765 H85 97.3338 28.4471 -5.0409 H 0.0 **** 0.0
27766 H86 92.9048 26.9626 -5.59408 H 0.0 **** 0.0
27767 H87 91.8673 26.9123 -3.31138 H 0.0 **** 0.0
27768 H88 94.3886 23.0764 11.0996 H 0.0 **** 0.0
27769 H89 92.7607 21.8041 9.96464 H 0.0 **** 0.0
27770 H90 91.1527 22.3711 9.38409 H 0.0 **** 0.0
27771 H91 91.9101 23.1269 10.8927 H 0.0 **** 0.0
27772 H92 97.0217 28.1664 3.67876 H 0.0 **** 0.0
27773 H93 99.73 28.4431 -2.08138 H 0.0 **** 0.0
27774 H94 100.927 30.0057 -3.43352 H 0.0 **** 0.0
27775 H95 99.3139 30.7893 -3.20479 H 0.0 **** 0.0
27776 H96 99.723 29.9414 -4.76022 H 0.0 **** 0.0
27777 H97 91.9368 34.0861 -0.519113 H 0.0 **** 0.0
27778 H98 85.996 28.2446 1.45764 H 0.0 **** 0.0
27779 H99 95.8249 28.7995 -6.51404 H 0.0 **** 0.0
27780 H100 91.0588 29.375 -0.278532 H 0.0 **** 0.0
27781 H101 88.5872 27.4725 0.413845 H 0.0 **** 0.0
27782 H102 99.5216 27.798 -3.7339 H 0.0 **** 0.0
27783 C1 16.707 80.4079 48.2659 C 0.0 **** 0.0
27784 C2 16.3592 79.157 48.7272 C 0.0 **** 0.0
27785 C3 15.9243 78.1789 47.7952 C 0.0 **** 0.0
27786 C4 15.8504 78.4581 46.4455 C 0.0 **** 0.0
27787 C5 16.1391 79.7559 45.9734 C 0.0 **** 0.0
27788 C6 16.6374 80.7097 46.9057 C 0.0 **** 0.0
27789 C7 15.1738 77.3432 45.8288 C 0.0 **** 0.0
27790 C8 15.1135 76.3106 46.7226 C 0.0 **** 0.0
27791 C9 15.5658 76.7669 48.076 C 0.0 **** 0.0
27792 C10 14.5465 75.0632 46.3855 C 0.0 **** 0.0
27793 C11 14.1123 74.8542 45.041 C 0.0 **** 0.0
27794 C12 14.1773 75.9124 44.094 C 0.0 **** 0.0
27795 C13 14.6327 77.1931 44.5344 C 0.0 **** 0.0
27796 C14 14.6163 78.3389 43.5347 C 0.0 **** 0.0
27797 C15 13.5846 78.1224 42.4213 C 0.0 **** 0.0
27798 C16 13.7247 76.7894 41.769 C 0.0 **** 0.0
27799 C17 13.6172 75.6834 42.7419 C 0.0 **** 0.0
27800 C18 13.1707 74.3682 42.366 C 0.0 **** 0.0
27801 C19 13.2896 73.3456 43.2789 C 0.0 **** 0.0
27802 C20 13.5316 73.5924 44.6293 C 0.0 **** 0.0
27803 C21 13.1759 72.726 45.6642 C 0.0 **** 0.0
27804 C22 13.6384 72.8709 46.9266 C 0.0 **** 0.0
27805 C23 14.343 74.0204 47.3401 C 0.0 **** 0.0
27806 C24 13.3943 71.915 42.6817 C 0.0 **** 0.0
27807 C25 12.248 71.6611 41.7765 C 0.0 **** 0.0
27808 C26 11.7857 72.7149 40.9311 C 0.0 **** 0.0
27809 C27 12.3887 74.101 41.0624 C 0.0 **** 0.0
27810 C28 10.7468 72.4349 40.0112 C 0.0 **** 0.0
27811 C29 9.99705 71.2286 40.0929 C 0.0 **** 0.0
27812 C30 10.4083 70.2417 40.9984 C 0.0 **** 0.0
27813 C31 11.6117 70.3849 41.6724 C 0.0 **** 0.0
27814 C32 9.55389 69.0593 41.23 C 0.0 **** 0.0
27815 C33 8.13267 69.0711 40.7649 C 0.0 **** 0.0
27816 C34 7.66748 70.4369 40.2553 C 0.0 **** 0.0
27817 C35 8.68319 71.0801 39.3702 C 0.0 **** 0.0
27818 C36 12.1909 69.2193 42.2465 C 0.0 **** 0.0
27819 C37 11.4602 67.9953 42.2648 C 0.0 **** 0.0
27820 C38 10.1311 67.9437 41.8322 C 0.0 **** 0.0
27821 C39 13.067 71.7832 47.831 C 0.0 **** 0.0
27822 C40 12.0858 71.1683 46.9336 C 0.0 **** 0.0
27823 C41 12.1442 71.8047 45.7092 C 0.0 **** 0.0
27824 C42 11.0696 71.6638 44.8089 C 0.0 **** 0.0
27825 C43 9.98694 70.8362 45.1017 C 0.0 **** 0.0
27826 C44 10.1226 69.9552 46.2454 C 0.0 **** 0.0
27827 C45 11.1814 70.1475 47.164 C 0.0 **** 0.0
27828 C46 11.2634 69.323 48.3314 C 0.0 **** 0.0
27829 C47 10.33 68.3077 48.5526 C 0.0 **** 0.0
27830 C48 9.22154 68.2396 47.6734 C 0.0 **** 0.0
27831 C49 9.14465 69.0061 46.4662 C 0.0 **** 0.0
27832 C50 8.05553 68.8433 45.5485 C 0.0 **** 0.0
27833 C51 7.91163 69.7851 44.5157 C 0.0 **** 0.0
27834 C52 8.84964 70.7592 44.2796 C 0.0 **** 0.0
27835 O53 17.1572 81.3712 49.1474 O 0.0 **** 0.0
27836 C54 17.0934 82.0391 46.4294 C 0.0 **** 0.0
27837 O55 14.7974 74.1901 48.6462 O 0.0 **** 0.0
27838 C56 10.3429 67.5372 49.8358 C 0.0 **** 0.0
27839 C57 11.1009 66.2391 49.6266 C 0.0 **** 0.0
27840 O58 12.0594 66.8065 42.6909 O 0.0 **** 0.0
27841 O59 10.3517 73.4193 39.1035 O 0.0 **** 0.0
27842 O60 7.08592 67.8316 45.6301 O 0.0 **** 0.0
27843 H61 16.4217 78.9651 49.7874 H 0.0 **** 0.0
27844 H62 16.1796 79.9813 44.9129 H 0.0 **** 0.0
27845 H63 14.7735 76.6966 48.8539 H 0.0 **** 0.0
27846 H64 16.5459 76.1972 48.3679 H 0.0 **** 0.0
27847 H65 14.2537 79.2938 44.0597 H 0.0 **** 0.0
27848 H66 15.6178 78.4364 43.1013 H 0.0 **** 0.0
27849 H67 12.5145 78.2008 42.8591 H 0.0 **** 0.0
27850 H68 13.6766 78.9614 41.6501 H 0.0 **** 0.0
27851 H69 12.9695 76.6734 40.9815 H 0.0 **** 0.0
27852 H70 14.7205 76.719 41.246 H 0.0 **** 0.0
27853 H71 14.3627 71.8298 42.1847 H 0.0 **** 0.0
27854 H72 12.968 74.3779 40.1767 H 0.0 **** 0.0
27855 H73 8.02623 68.3579 39.9615 H 0.0 **** 0.0
27856 H74 7.51233 68.7463 41.6636 H 0.0 **** 0.0
27857 H75 6.69887 70.2839 39.7457 H 0.0 **** 0.0
27858 H76 7.46134 71.0948 41.1034 H 0.0 **** 0.0
27859 H77 8.82378 70.3994 38.4954 H 0.0 **** 0.0
27860 H78 8.20359 71.9636 38.9722 H 0.0 **** 0.0
27861 H79 13.1852 69.1555 42.6624 H 0.0 **** 0.0
27862 H80 9.58944 66.9824 41.9223 H 0.0 **** 0.0
27863 H81 13.8321 71.0905 48.1353 H 0.0 **** 0.0
27864 H82 12.5217 72.2614 48.6951 H 0.0 **** 0.0
27865 H83 10.9733 72.2917 43.9453 H 0.0 **** 0.0
27866 H84 12.0687 69.4813 49.0542 H 0.0 **** 0.0
27867 H85 8.38465 67.6085 47.9894 H 0.0 **** 0.0
27868 H86 7.1146 69.6905 43.7868 H 0.0 **** 0.0
27869 H87 8.75615 71.3282 43.3573 H 0.0 **** 0.0
27870 H88 17.1756 81.0358 50.1142 H 0.0 **** 0.0
27871 H89 17.2424 82.0752 45.3136 H 0.0 **** 0.0
27872 H90 18.1051 82.2639 46.8614 H 0.0 **** 0.0
27873 H91 16.427 82.8233 46.7407 H 0.0 **** 0.0
27874 H92 14.7406 73.3449 49.2063 H 0.0 **** 0.0
27875 H93 10.7996 68.1247 50.6258 H 0.0 **** 0.0
27876 H94 10.9998 65.6108 50.5246 H 0.0 **** 0.0
27877 H95 12.1744 66.4613 49.5912 H 0.0 **** 0.0
27878 H96 10.712 65.6881 48.8202 H 0.0 **** 0.0
27879 H97 13.0437 66.9024 42.967 H 0.0 **** 0.0
27880 H98 10.9891 74.2106 39.0203 H 0.0 **** 0.0
27881 H99 7.32237 67.0587 46.2348 H 0.0 **** 0.0
27882 H100 13.41 71.1676 43.4779 H 0.0 **** 0.0
27883 H101 11.5151 74.7985 41.0921 H 0.0 **** 0.0
27884 H102 9.30484 67.3539 50.1847 H 0.0 **** 0.0
27885 C1 69.0308 17.7237 12.2226 C 0.0 **** 0.0
27886 C2 68.5165 17.0747 13.3736 C 0.0 **** 0.0
27887 C3 67.4146 16.2229 13.2096 C 0.0 **** 0.0
27888 C4 66.9284 15.9084 11.9756 C 0.0 **** 0.0
27889 C5 67.4773 16.4665 10.8124 C 0.0 **** 0.0
27890 C6 68.4827 17.3992 10.9645 C 0.0 **** 0.0
27891 C7 65.9923 14.7786 12.1305 C 0.0 **** 0.0
27892 C8 65.9396 14.4395 13.4492 C 0.0 **** 0.0
27893 C9 66.7554 15.4089 14.2761 C 0.0 **** 0.0
27894 C10 65.1699 13.3233 13.8781 C 0.0 **** 0.0
27895 C11 64.4893 12.5325 12.9379 C 0.0 **** 0.0
27896 C12 64.5763 12.8935 11.5551 C 0.0 **** 0.0
27897 C13 65.3465 13.9831 11.1578 C 0.0 **** 0.0
27898 C14 65.4278 14.3737 9.67507 C 0.0 **** 0.0
27899 C15 64.3773 13.6817 8.77229 C 0.0 **** 0.0
27900 C16 64.2116 12.2063 9.04604 C 0.0 **** 0.0
27901 C17 63.94 11.9661 10.5544 C 0.0 **** 0.0
27902 C18 63.3708 10.7342 10.9797 C 0.0 **** 0.0
27903 C19 63.4504 10.4052 12.3343 C 0.0 **** 0.0
27904 C20 63.7596 11.4066 13.3096 C 0.0 **** 0.0
27905 C21 63.37 11.2772 14.698 C 0.0 **** 0.0
27906 C22 63.9646 12.0877 15.6381 C 0.0 **** 0.0
27907 C23 64.9777 12.9948 15.2819 C 0.0 **** 0.0
27908 C24 63.3707 8.90415 12.6993 C 0.0 **** 0.0
27909 C25 62.1473 8.26677 12.0281 C 0.0 **** 0.0
27910 C26 61.7563 8.78388 10.7365 C 0.0 **** 0.0
27911 C27 62.6609 9.75941 10.0208 C 0.0 **** 0.0
27912 C28 60.5876 8.2646 10.1419 C 0.0 **** 0.0
27913 C29 59.7274 7.42295 10.8347 C 0.0 **** 0.0
27914 C30 60.0277 7.01514 12.1631 C 0.0 **** 0.0
27915 C31 61.3339 7.31809 12.6999 C 0.0 **** 0.0
27916 C32 59.1225 6.12998 12.8535 C 0.0 **** 0.0
27917 C33 57.7529 5.74691 12.2971 C 0.0 **** 0.0
27918 C34 57.2955 6.79268 11.2352 C 0.0 **** 0.0
27919 C35 58.3726 6.98914 10.1828 C 0.0 **** 0.0
27920 C36 61.7917 6.56866 13.8493 C 0.0 **** 0.0
27921 C37 60.9122 5.60739 14.443 C 0.0 **** 0.0
27922 C38 59.6189 5.46531 13.9829 C 0.0 **** 0.0
27923 C39 63.3496 11.883 16.9898 C 0.0 **** 0.0
27924 C40 62.1747 10.9692 16.6298 C 0.0 **** 0.0
27925 C41 62.2619 10.6658 15.2804 C 0.0 **** 0.0
27926 C42 61.1323 10.0658 14.6543 C 0.0 **** 0.0
27927 C43 60.0119 9.73268 15.4362 C 0.0 **** 0.0
27928 C44 59.9265 10.1058 16.8252 C 0.0 **** 0.0
27929 C45 61.0401 10.7319 17.4235 C 0.0 **** 0.0
27930 C46 60.9153 11.2083 18.7742 C 0.0 **** 0.0
27931 C47 59.6488 11.1005 19.4255 C 0.0 **** 0.0
27932 C48 58.5944 10.471 18.7927 C 0.0 **** 0.0
27933 C49 58.7093 9.92571 17.4994 C 0.0 **** 0.0
27934 C50 57.6467 9.18201 16.8932 C 0.0 **** 0.0
27935 C51 57.7518 8.8614 15.5447 C 0.0 **** 0.0
27936 C52 58.8651 9.23128 14.7988 C 0.0 **** 0.0
27937 O53 70.1074 18.5622 12.3323 O 0.0 **** 0.0
27938 C54 69.1115 17.9827 9.7355 C 0.0 **** 0.0
27939 O55 65.5829 13.7602 16.2568 O 0.0 **** 0.0
27940 C56 59.5856 11.5414 20.8464 C 0.0 **** 0.0
27941 C57 59.847 10.36 21.7825 C 0.0 **** 0.0
27942 O58 61.4002 4.80138 15.5031 O 0.0 **** 0.0
27943 O59 60.1167 8.78844 8.92129 O 0.0 **** 0.0
27944 O60 56.4987 8.70328 17.5335 O 0.0 **** 0.0
27945 H61 68.8536 17.3208 14.3916 H 0.0 **** 0.0
27946 H62 67.1134 16.2094 9.79568 H 0.0 **** 0.0
27947 H63 66.0328 16.0136 14.951 H 0.0 **** 0.0
27948 H64 67.4472 14.8836 14.9137 H 0.0 **** 0.0
27949 H65 65.2383 15.4126 9.53127 H 0.0 **** 0.0
27950 H66 66.4437 14.1631 9.22372 H 0.0 **** 0.0
27951 H67 63.3878 14.1655 8.89926 H 0.0 **** 0.0
27952 H68 64.6814 13.7686 7.66959 H 0.0 **** 0.0
27953 H69 63.3642 11.8657 8.50153 H 0.0 **** 0.0
27954 H70 65.1191 11.608 8.70182 H 0.0 **** 0.0
27955 H71 64.2138 8.32221 12.3097 H 0.0 **** 0.0
27956 H72 63.3219 9.17106 9.27885 H 0.0 **** 0.0
27957 H73 57.9053 4.72883 11.8335 H 0.0 **** 0.0
27958 H74 56.9762 5.68923 13.1549 H 0.0 **** 0.0
27959 H75 56.3445 6.45886 10.7175 H 0.0 **** 0.0
27960 H76 57.0857 7.77422 11.8238 H 0.0 **** 0.0
27961 H77 58.5114 6.04629 9.58939 H 0.0 **** 0.0
27962 H78 58.0857 7.73547 9.39562 H 0.0 **** 0.0
27963 H79 62.7591 6.71682 14.3152 H 0.0 **** 0.0
27964 H80 58.9419 4.74568 14.4706 H 0.0 **** 0.0
27965 H81 64.0145 11.3585 17.6662 H 0.0 **** 0.0
27966 H82 62.9791 12.8186 17.4643 H 0.0 **** 0.0
27967 H83 61.047 10.0569 13.5789 H 0.0 **** 0.0
27968 H84 61.7234 11.6127 19.2333 H 0.0 **** 0.0
27969 H85 57.6981 10.3634 19.3429 H 0.0 **** 0.0
27970 H86 56.9524 8.28297 15.0057 H 0.0 **** 0.0
27971 H87 58.8726 9.01882 13.7313 H 0.0 **** 0.0
27972 H88 70.5591 18.6272 13.2305 H 0.0 **** 0.0
27973 H89 69.9558 17.3126 9.53047 H 0.0 **** 0.0
27974 H90 69.4002 19.0121 9.75443 H 0.0 **** 0.0
27975 H91 68.3691 17.9545 8.88972 H 0.0 **** 0.0
27976 H92 65.3239 13.5171 17.1695 H 0.0 **** 0.0
27977 H93 60.3051 12.3621 21.0373 H 0.0 **** 0.0
27978 H94 59.0596 9.57192 21.6994 H 0.0 **** 0.0
27979 H95 59.9251 10.6735 22.832 H 0.0 **** 0.0
27980 H96 60.7791 9.86199 21.4376 H 0.0 **** 0.0
27981 H97 62.3554 5.0165 15.7687 H 0.0 **** 0.0
27982 H98 60.8364 9.10622 8.29916 H 0.0 **** 0.0
27983 H99 56.4033 8.90985 18.5344 H 0.0 **** 0.0
27984 H100 63.4618 8.71446 13.7845 H 0.0 **** 0.0
27985 H101 61.9528 10.3673 9.45251 H 0.0 **** 0.0
27986 H102 58.5427 11.9462 20.9711 H 0.0 **** 0.0
27987 C1 98.8578 76.8853 25.2097 C 0.0 **** 0.0
27988 C2 99.3114 75.6585 24.6568 C 0.0 **** 0.0
27989 C3 98.9602 74.4734 25.3007 C 0.0 **** 0.0
27990 C4 98.2729 74.4425 26.4565 C 0.0 **** 0.0
27991 C5 97.7573 75.6159 26.9859 C 0.0 **** 0.0
27992 C6 98.0067 76.8529 26.3628 C 0.0 **** 0.0
27993 C7 98.0571 73.06 26.9087 C 0.0 **** 0.0
27994 C8 98.6743 72.2626 25.9756 C 0.0 **** 0.0
27995 C9 99.2351 73.1109 24.8606 C 0.0 **** 0.0
27996 C10 98.7109 70.8506 26.0875 C 0.0 **** 0.0
27997 C11 98.1764 70.2576 27.2697 C 0.0 **** 0.0
27998 C12 97.6123 71.0878 28.2599 C 0.0 **** 0.0
27999 C13 97.6192 72.5163 28.1177 C 0.0 **** 0.0
28000 C14 97.2969 73.4227 29.3059 C 0.0 **** 0.0
28001 C15 97.0875 72.6893 30.6632 C 0.0 **** 0.0
28002 C16 96.3513 71.4129 30.4563 C 0.0 **** 0.0
28003 C17 97.1144 70.5225 29.4911 C 0.0 **** 0.0
28004 C18 97.1985 69.1592 29.7058 C 0.0 **** 0.0
28005 C19 97.5962 68.2943 28.6731 C 0.0 **** 0.0
28006 C20 98.2281 68.8364 27.4803 C 0.0 **** 0.0
28007 C21 98.8499 68.1003 26.4365 C 0.0 **** 0.0
28008 C22 99.1996 68.7166 25.2434 C 0.0 **** 0.0
28009 C23 99.1903 70.0768 25.033 C 0.0 **** 0.0
28010 C24 96.9462 66.9707 28.8088 C 0.0 **** 0.0
28011 C25 97.2253 66.3059 30.1277 C 0.0 **** 0.0
28012 C26 97.2234 67.1024 31.2814 C 0.0 **** 0.0
28013 C27 96.9769 68.6013 31.1117 C 0.0 **** 0.0
28014 C28 97.5284 66.5424 32.5546 C 0.0 **** 0.0
28015 C29 97.5337 65.1785 32.7393 C 0.0 **** 0.0
28016 C30 97.4037 64.3231 31.6001 C 0.0 **** 0.0
28017 C31 97.3032 64.8769 30.3041 C 0.0 **** 0.0
28018 C32 97.4177 62.8804 31.8045 C 0.0 **** 0.0
28019 C33 97.5237 62.2972 33.1995 C 0.0 **** 0.0
28020 C34 98.4304 63.2212 34.0539 C 0.0 **** 0.0
28021 C35 97.7618 64.6218 34.1202 C 0.0 **** 0.0
28022 C36 97.2454 63.9578 29.2294 C 0.0 **** 0.0
28023 C37 97.1372 62.5613 29.4452 C 0.0 **** 0.0
28024 C38 97.1431 62.0423 30.7369 C 0.0 **** 0.0
28025 C39 99.8993 67.7575 24.3499 C 0.0 **** 0.0
28026 C40 99.9389 66.5366 25.2136 C 0.0 **** 0.0
28027 C41 99.3596 66.7805 26.4339 C 0.0 **** 0.0
28028 C42 99.6044 65.9002 27.4952 C 0.0 **** 0.0
28029 C43 100.161 64.6265 27.2194 C 0.0 **** 0.0
28030 C44 100.71 64.3649 25.9505 C 0.0 **** 0.0
28031 C45 100.568 65.3176 24.9345 C 0.0 **** 0.0
28032 C46 101.313 65.2065 23.7555 C 0.0 **** 0.0
28033 C47 102.178 64.1431 23.6262 C 0.0 **** 0.0
28034 C48 102.22 63.0835 24.5517 C 0.0 **** 0.0
28035 C49 101.489 63.2302 25.7526 C 0.0 **** 0.0
28036 C50 101.595 62.2707 26.7749 C 0.0 **** 0.0
28037 C51 101.122 62.5968 28.0854 C 0.0 **** 0.0
28038 C52 100.349 63.7537 28.2807 C 0.0 **** 0.0
28039 O53 99.1519 78.1134 24.5763 O 0.0 **** 0.0
28040 C54 97.4014 78.1013 26.9934 C 0.0 **** 0.0
28041 O55 99.7064 70.6381 23.8258 O 0.0 **** 0.0
28042 C56 103.149 64.1282 22.4423 C 0.0 **** 0.0
28043 C57 102.493 63.5146 21.1941 C 0.0 **** 0.0
28044 O58 96.9603 61.7022 28.4155 O 0.0 **** 0.0
28045 O59 97.6765 67.3373 33.7104 O 0.0 **** 0.0
28046 O60 102.186 61.0375 26.5835 O 0.0 **** 0.0
28047 H61 99.9202 75.6776 23.7293 H 0.0 **** 0.0
28048 H62 97.2051 75.6024 27.9166 H 0.0 **** 0.0
28049 H63 100.324 72.8825 24.7878 H 0.0 **** 0.0
28050 H64 98.8042 72.9666 23.9062 H 0.0 **** 0.0
28051 H65 98.0996 74.2218 29.5268 H 0.0 **** 0.0
28052 H66 96.2851 73.8714 29.009 H 0.0 **** 0.0
28053 H67 98.0604 72.4582 31.1261 H 0.0 **** 0.0
28054 H68 96.593 73.3274 31.4041 H 0.0 **** 0.0
28055 H69 96.1132 70.9446 31.419 H 0.0 **** 0.0
28056 H70 95.3491 71.7407 30.0566 H 0.0 **** 0.0
28057 H71 95.8217 67.146 28.8234 H 0.0 **** 0.0
28058 H72 95.9787 68.8512 31.4715 H 0.0 **** 0.0
28059 H73 96.517 62.2957 33.6516 H 0.0 **** 0.0
28060 H74 97.8636 61.2127 33.1789 H 0.0 **** 0.0
28061 H75 98.5127 62.8586 35.0825 H 0.0 **** 0.0
28062 H76 99.449 63.2502 33.6093 H 0.0 **** 0.0
28063 H77 96.7945 64.4986 34.642 H 0.0 **** 0.0
28064 H78 98.3402 65.2695 34.7765 H 0.0 **** 0.0
28065 H79 97.1842 64.3347 28.2347 H 0.0 **** 0.0
28066 H80 96.8659 61.0022 30.8975 H 0.0 **** 0.0
28067 H81 99.3923 67.6281 23.3553 H 0.0 **** 0.0
28068 H82 100.936 68.1283 24.1299 H 0.0 **** 0.0
28069 H83 99.5069 66.2565 28.4892 H 0.0 **** 0.0
28070 H84 101.336 65.9414 22.9502 H 0.0 **** 0.0
28071 H85 102.999 62.3373 24.4606 H 0.0 **** 0.0
28072 H86 101.214 61.868 28.8655 H 0.0 **** 0.0
28073 H87 99.9797 63.9889 29.2657 H 0.0 **** 0.0
28074 H88 99.6876 77.9821 23.7154 H 0.0 **** 0.0
28075 H89 97.5147 78.9815 26.315 H 0.0 **** 0.0
28076 H90 97.8494 78.2619 27.9819 H 0.0 **** 0.0
28077 H91 96.3226 77.9418 27.0907 H 0.0 **** 0.0
28078 H92 99.883 70.0199 23.045 H 0.0 **** 0.0
28079 H93 103.362 65.1591 22.1903 H 0.0 **** 0.0
28080 H94 103.135 63.5705 20.3175 H 0.0 **** 0.0
28081 H95 101.51 64.0435 20.9663 H 0.0 **** 0.0
28082 H96 102.272 62.4339 21.3438 H 0.0 **** 0.0
28083 H97 96.9137 62.1627 27.5121 H 0.0 **** 0.0
28084 H98 97.083 68.1679 33.7266 H 0.0 **** 0.0
28085 H99 102.2 60.6221 25.6226 H 0.0 **** 0.0
28086 H100 97.1249 66.3633 27.9301 H 0.0 **** 0.0
28087 H101 97.6506 69.1408 31.7387 H 0.0 **** 0.0
28088 H102 104.054 63.5761 22.689 H 0.0 **** 0.0
28089 C1 36.6396 16.6058 100.408 C 0.0 **** 0.0
28090 C2 37.6823 16.8569 101.298 C 0.0 **** 0.0
28091 C3 38.9492 16.2559 101.017 C 0.0 **** 0.0
28092 C4 39.087 15.3334 100.011 C 0.0 **** 0.0
28093 C5 38.0731 15.129 99.1079 C 0.0 **** 0.0
28094 C6 36.868 15.838 99.2555 C 0.0 **** 0.0
28095 C7 40.4476 14.7184 100.047 C 0.0 **** 0.0
28096 C8 41.2041 15.4442 100.995 C 0.0 **** 0.0
28097 C9 40.2506 16.4504 101.666 C 0.0 **** 0.0
28098 C10 42.5957 15.2817 101.089 C 0.0 **** 0.0
28099 C11 43.2111 14.1541 100.49 C 0.0 **** 0.0
28100 C12 42.4572 13.4037 99.5656 C 0.0 **** 0.0
28101 C13 41.0367 13.6358 99.361 C 0.0 **** 0.0
28102 C14 40.2591 12.9163 98.2758 C 0.0 **** 0.0
28103 C15 40.9222 11.6093 97.7914 C 0.0 **** 0.0
28104 C16 42.3707 11.8612 97.4727 C 0.0 **** 0.0
28105 C17 43.1317 12.4324 98.6986 C 0.0 **** 0.0
28106 C18 44.5271 12.2214 98.7869 C 0.0 **** 0.0
28107 C19 45.257 12.922 99.7896 C 0.0 **** 0.0
28108 C20 44.6002 13.8537 100.694 C 0.0 **** 0.0
28109 C21 45.2525 14.6092 101.722 C 0.0 **** 0.0
28110 C22 44.7611 15.8778 102.062 C 0.0 **** 0.0
28111 C23 43.4351 16.2071 101.84 C 0.0 **** 0.0
28112 C24 46.7248 12.7127 99.8512 C 0.0 **** 0.0
28113 C25 47.4254 12.2223 98.5964 C 0.0 **** 0.0
28114 C26 46.7099 11.5716 97.5747 C 0.0 **** 0.0
28115 C27 45.2277 11.5022 97.6528 C 0.0 **** 0.0
28116 C28 47.3722 11.1917 96.3802 C 0.0 **** 0.0
28117 C29 48.769 11.2505 96.2817 C 0.0 **** 0.0
28118 C30 49.4908 11.7803 97.3278 C 0.0 **** 0.0
28119 C31 48.8535 12.3425 98.4588 C 0.0 **** 0.0
28120 C32 50.966 11.7748 97.2367 C 0.0 **** 0.0
28121 C33 51.6997 10.8694 96.279 C 0.0 **** 0.0
28122 C34 50.7747 10.0757 95.3306 C 0.0 **** 0.0
28123 C35 49.5173 10.8516 95.0278 C 0.0 **** 0.0
28124 C36 49.6118 12.9327 99.4687 C 0.0 **** 0.0
28125 C37 51.0113 12.9799 99.3436 C 0.0 **** 0.0
28126 C38 51.7023 12.3894 98.2535 C 0.0 **** 0.0
28127 C39 45.7464 16.744 102.8 C 0.0 **** 0.0
28128 C40 46.8403 15.734 102.929 C 0.0 **** 0.0
28129 C41 46.4944 14.5201 102.412 C 0.0 **** 0.0
28130 C42 47.2229 13.372 102.717 C 0.0 **** 0.0
28131 C43 48.448 13.543 103.365 C 0.0 **** 0.0
28132 C44 48.8811 14.8336 103.771 C 0.0 **** 0.0
28133 C45 48.0487 15.9369 103.622 C 0.0 **** 0.0
28134 C46 48.4323 17.1889 104.082 C 0.0 **** 0.0
28135 C47 49.7301 17.3788 104.629 C 0.0 **** 0.0
28136 C48 50.5878 16.3001 104.726 C 0.0 **** 0.0
28137 C49 50.1988 15.0101 104.295 C 0.0 **** 0.0
28138 C50 51.0593 13.8393 104.307 C 0.0 **** 0.0
28139 C51 50.5609 12.5878 104.011 C 0.0 **** 0.0
28140 C52 49.258 12.4354 103.541 C 0.0 **** 0.0
28141 O53 35.3818 17.0858 100.645 O 0.0 **** 0.0
28142 C54 35.8009 15.6191 98.2733 C 0.0 **** 0.0
28143 O55 42.9006 17.3965 102.287 O 0.0 **** 0.0
28144 C56 50.2947 18.8215 104.797 C 0.0 **** 0.0
28145 C57 49.7829 19.4925 106.04 C 0.0 **** 0.0
28146 O58 51.763 13.6812 100.299 O 0.0 **** 0.0
28147 O59 46.654 10.716 95.2812 O 0.0 **** 0.0
28148 O60 52.3922 13.8788 104.719 O 0.0 **** 0.0
28149 H61 37.5684 17.5495 102.133 H 0.0 **** 0.0
28150 H62 38.1747 14.4146 98.2686 H 0.0 **** 0.0
28151 H63 40.1838 16.248 102.759 H 0.0 **** 0.0
28152 H64 40.5995 17.4776 101.525 H 0.0 **** 0.0
28153 H65 39.2632 12.6137 98.6256 H 0.0 **** 0.0
28154 H66 40.1684 13.5805 97.4183 H 0.0 **** 0.0
28155 H67 40.8171 10.8321 98.5807 H 0.0 **** 0.0
28156 H68 40.4173 11.2569 96.8806 H 0.0 **** 0.0
28157 H69 42.7987 10.9017 97.1436 H 0.0 **** 0.0
28158 H70 42.4269 12.6492 96.7063 H 0.0 **** 0.0
28159 H71 47.1417 13.7053 100.043 H 0.0 **** 0.0
28160 H72 44.7903 11.8762 96.695 H 0.0 **** 0.0
28161 H73 52.3612 11.4592 95.6238 H 0.0 **** 0.0
28162 H74 52.3924 10.1257 96.8513 H 0.0 **** 0.0
28163 H75 51.2591 9.90224 94.3616 H 0.0 **** 0.0
28164 H76 50.5345 9.05183 95.7153 H 0.0 **** 0.0
28165 H77 49.8068 11.8233 94.5111 H 0.0 **** 0.0
28166 H78 48.8842 10.2555 94.3562 H 0.0 **** 0.0
28167 H79 49.2197 13.3853 100.32 H 0.0 **** 0.0
28168 H80 52.8066 12.3883 98.2352 H 0.0 **** 0.0
28169 H81 46.0337 17.5716 102.12 H 0.0 **** 0.0
28170 H82 45.3552 17.0939 103.722 H 0.0 **** 0.0
28171 H83 46.7886 12.4026 102.615 H 0.0 **** 0.0
28172 H84 47.7481 18.0587 103.95 H 0.0 **** 0.0
28173 H85 51.5579 16.4834 105.126 H 0.0 **** 0.0
28174 H86 51.2122 11.7438 104.135 H 0.0 **** 0.0
28175 H87 48.9044 11.4207 103.234 H 0.0 **** 0.0
28176 H88 35.2789 17.4875 101.579 H 0.0 **** 0.0
28177 H89 34.8882 15.2424 98.792 H 0.0 **** 0.0
28178 H90 36.1039 14.8726 97.5289 H 0.0 **** 0.0
28179 H91 35.5992 16.6038 97.7881 H 0.0 **** 0.0
28180 H92 43.4788 17.8349 103.017 H 0.0 **** 0.0
28181 H93 51.4055 18.8787 104.919 H 0.0 **** 0.0
28182 H94 50.1236 20.5618 106.171 H 0.0 **** 0.0
28183 H95 50.1388 18.9204 106.932 H 0.0 **** 0.0
28184 H96 48.6822 19.5269 105.982 H 0.0 **** 0.0
28185 H97 51.2703 13.8844 101.141 H 0.0 **** 0.0
28186 H98 45.7611 10.3129 95.4656 H 0.0 **** 0.0
28187 H99 52.734 14.7639 105.091 H 0.0 **** 0.0
28188 H100 47.0178 11.9526 100.64 H 0.0 **** 0.0
28189 H101 44.9987 10.4479 97.6915 H 0.0 **** 0.0
28190 H102 50.0018 19.4143 103.957 H 0.0 **** 0.0
28191 C1 48.4755 84.344 73.7375 C 0.0 **** 0.0
28192 C2 48.0456 84.9082 74.9864 C 0.0 **** 0.0
28193 C3 46.7185 84.7948 75.366 C 0.0 **** 0.0
28194 C4 45.8912 83.9188 74.7405 C 0.0 **** 0.0
28195 C5 46.3624 83.1653 73.6275 C 0.0 **** 0.0
28196 C6 47.6321 83.4252 73.0919 C 0.0 **** 0.0
28197 C7 44.5963 84.0008 75.3846 C 0.0 **** 0.0
28198 C8 44.6336 84.9346 76.4071 C 0.0 **** 0.0
28199 C9 46.0172 85.5092 76.4894 C 0.0 **** 0.0
28200 C10 43.5647 85.0581 77.3151 C 0.0 **** 0.0
28201 C11 42.5981 84.006 77.3524 C 0.0 **** 0.0
28202 C12 42.6432 82.9931 76.3337 C 0.0 **** 0.0
28203 C13 43.5231 83.1322 75.2509 C 0.0 **** 0.0
28204 C14 43.3067 82.3083 74.0229 C 0.0 **** 0.0
28205 C15 41.9183 81.6573 74.0164 C 0.0 **** 0.0
28206 C16 41.5736 80.9512 75.3184 C 0.0 **** 0.0
28207 C17 41.8257 81.7681 76.5342 C 0.0 **** 0.0
28208 C18 41.1777 81.5466 77.8158 C 0.0 **** 0.0
28209 C19 41.1637 82.6032 78.7278 C 0.0 **** 0.0
28210 C20 41.5786 83.9112 78.3495 C 0.0 **** 0.0
28211 C21 41.4712 85.0317 79.1718 C 0.0 **** 0.0
28212 C22 42.4179 86.044 79.1977 C 0.0 **** 0.0
28213 C23 43.499 86.0631 78.2943 C 0.0 **** 0.0
28214 C24 41.1211 82.2622 80.2205 C 0.0 **** 0.0
28215 C25 41.1295 80.746 80.6142 C 0.0 **** 0.0
28216 C26 40.9634 79.751 79.6212 C 0.0 **** 0.0
28217 C27 40.5675 80.208 78.2372 C 0.0 **** 0.0
28218 C28 40.9089 78.3642 79.9734 C 0.0 **** 0.0
28219 C29 41.1095 77.9531 81.305 C 0.0 **** 0.0
28220 C30 41.2902 78.9169 82.2961 C 0.0 **** 0.0
28221 C31 41.3028 80.3267 81.9728 C 0.0 **** 0.0
28222 C32 41.3126 78.4702 83.74 C 0.0 **** 0.0
28223 C33 41.4147 77.0406 84.1393 C 0.0 **** 0.0
28224 C34 40.66 76.2014 83.1043 C 0.0 **** 0.0
28225 C35 41.0787 76.4828 81.6634 C 0.0 **** 0.0
28226 C36 41.327 81.1886 83.0587 C 0.0 **** 0.0
28227 C37 41.2221 80.7555 84.4061 C 0.0 **** 0.0
28228 C38 41.1537 79.4171 84.7432 C 0.0 **** 0.0
28229 C39 42.0969 87.0067 80.3039 C 0.0 **** 0.0
28230 C40 40.8319 86.439 80.815 C 0.0 **** 0.0
28231 C41 40.4675 85.3294 80.0936 C 0.0 **** 0.0
28232 C42 39.1709 84.7486 80.2336 C 0.0 **** 0.0
28233 C43 38.4858 84.96 81.4399 C 0.0 **** 0.0
28234 C44 39.1015 85.8246 82.4037 C 0.0 **** 0.0
28235 C45 40.2089 86.6456 82.0687 C 0.0 **** 0.0
28236 C46 40.7781 87.4734 83.0117 C 0.0 **** 0.0
28237 C47 40.21 87.6009 84.286 C 0.0 **** 0.0
28238 C48 39.0656 86.8224 84.6276 C 0.0 **** 0.0
28239 C49 38.5332 85.8811 83.7066 C 0.0 **** 0.0
28240 C50 37.3999 85.0312 84.0346 C 0.0 **** 0.0
28241 C51 36.7832 84.3361 83.0126 C 0.0 **** 0.0
28242 C52 37.3564 84.2265 81.7714 C 0.0 **** 0.0
28243 O53 49.7513 84.7093 73.2847 O 0.0 **** 0.0
28244 C54 47.994 82.7679 71.8171 C 0.0 **** 0.0
28245 O55 44.4156 87.1231 78.2839 O 0.0 **** 0.0
28246 C56 40.737 88.6204 85.2227 C 0.0 **** 0.0
28247 C57 40.3376 90.0484 84.9217 C 0.0 **** 0.0
28248 O58 41.2363 81.6461 85.5015 O 0.0 **** 0.0
28249 O59 40.6809 77.3481 79.0208 O 0.0 **** 0.0
28250 O60 36.8095 84.9316 85.2613 O 0.0 **** 0.0
28251 H61 48.7056 85.5506 75.5808 H 0.0 **** 0.0
28252 H62 45.7248 82.4788 73.0555 H 0.0 **** 0.0
28253 H63 45.9521 86.6055 76.271 H 0.0 **** 0.0
28254 H64 46.4975 85.2902 77.4286 H 0.0 **** 0.0
28255 H65 43.3997 82.9539 73.1286 H 0.0 **** 0.0
28256 H66 44.0779 81.4611 73.9711 H 0.0 **** 0.0
28257 H67 41.1912 82.4254 73.9497 H 0.0 **** 0.0
28258 H68 41.901 80.9969 73.15 H 0.0 **** 0.0
28259 H69 40.521 80.7346 75.325 H 0.0 **** 0.0
28260 H70 42.1042 79.949 75.399 H 0.0 **** 0.0
28261 H71 42.0381 82.6398 80.7405 H 0.0 **** 0.0
28262 H72 40.9171 79.4015 77.5074 H 0.0 **** 0.0
28263 H73 42.5017 76.7575 84.122 H 0.0 **** 0.0
28264 H74 40.9799 76.8581 85.1581 H 0.0 **** 0.0
28265 H75 40.927 75.1529 83.3726 H 0.0 **** 0.0
28266 H76 39.5383 76.2833 83.2072 H 0.0 **** 0.0
28267 H77 42.0777 76.0884 81.4256 H 0.0 **** 0.0
28268 H78 40.3326 75.9721 81.028 H 0.0 **** 0.0
28269 H79 41.3535 82.2335 82.8567 H 0.0 **** 0.0
28270 H80 41.1041 79.1294 85.7754 H 0.0 **** 0.0
28271 H81 42.9095 87.1476 81.0635 H 0.0 **** 0.0
28272 H82 41.8317 88.0089 79.8995 H 0.0 **** 0.0
28273 H83 38.8578 83.9934 79.5114 H 0.0 **** 0.0
28274 H84 41.6264 88.0823 82.7348 H 0.0 **** 0.0
28275 H85 38.6307 86.9508 85.6103 H 0.0 **** 0.0
28276 H86 35.9086 83.8077 83.2372 H 0.0 **** 0.0
28277 H87 36.8595 83.473 81.0353 H 0.0 **** 0.0
28278 H88 49.8389 84.6547 72.2751 H 0.0 **** 0.0
28279 H89 48.1345 83.5232 71.0163 H 0.0 **** 0.0
28280 H90 47.349 81.8758 71.4703 H 0.0 **** 0.0
28281 H91 48.9831 82.2553 72.0056 H 0.0 **** 0.0
28282 H92 44.4157 87.7125 79.1023 H 0.0 **** 0.0
28283 H93 40.4981 88.4346 86.3016 H 0.0 **** 0.0
28284 H94 40.4237 90.2212 83.8649 H 0.0 **** 0.0
28285 H95 41.0368 90.7601 85.4007 H 0.0 **** 0.0
28286 H96 39.3175 90.1357 85.2688 H 0.0 **** 0.0
28287 H97 41.2237 82.6447 85.271 H 0.0 **** 0.0
28288 H98 40.7825 77.5283 78.0482 H 0.0 **** 0.0
28289 H99 37.3459 85.2473 86.065 H 0.0 **** 0.0
28290 H100 40.2141 82.64 80.6831 H 0.0 **** 0.0
28291 H101 39.4435 80.2918 78.2123 H 0.0 **** 0.0
28292 H102 41.8561 88.6035 85.2283 H 0.0 **** 0.0
28293 C1 92.0319 17.4189 38.7566 C 0.0 **** 0.0
28294 C2 93.2844 16.8693 39.0224 C 0.0 **** 0.0
28295 C3 94.3219 17.6295 39.5432 C 0.0 **** 0.0
28296 C4 94.1427 18.9293 39.7809 C 0.0 **** 0.0
28297 C5 92.8799 19.5545 39.5931 C 0.0 **** 0.0
28298 C6 91.8034 18.757 39.0818 C 0.0 **** 0.0
28299 C7 95.3978 19.4018 40.4034 C 0.0 **** 0.0
28300 C8 96.2637 18.3156 40.6311 C 0.0 **** 0.0
28301 C9 95.6498 17.113 40.0694 C 0.0 **** 0.0
28302 C10 97.4549 18.4664 41.2678 C 0.0 **** 0.0
28303 C11 97.7998 19.8154 41.7082 C 0.0 **** 0.0
28304 C12 96.9627 20.9156 41.3594 C 0.0 **** 0.0
28305 C13 95.7588 20.7127 40.6946 C 0.0 **** 0.0
28306 C14 94.8989 21.8853 40.2576 C 0.0 **** 0.0
28307 C15 95.7354 23.1548 40.0933 C 0.0 **** 0.0
28308 C16 96.599 23.4671 41.3368 C 0.0 **** 0.0
28309 C17 97.4322 22.2704 41.7415 C 0.0 **** 0.0
28310 C18 98.4638 22.3846 42.6808 C 0.0 **** 0.0
28311 C19 99.1355 21.2453 43.136 C 0.0 **** 0.0
28312 C20 99.0039 20.0448 42.4196 C 0.0 **** 0.0
28313 C21 99.9036 19.0045 42.5047 C 0.0 **** 0.0
28314 C22 99.577 17.7091 42.1719 C 0.0 **** 0.0
28315 C23 98.357 17.3655 41.5834 C 0.0 **** 0.0
28316 C24 99.6719 21.2479 44.5908 C 0.0 **** 0.0
28317 C25 100.411 22.5053 44.8969 C 0.0 **** 0.0
28318 C26 99.8525 23.7102 44.3887 C 0.0 **** 0.0
28319 C27 98.8026 23.6969 43.3113 C 0.0 **** 0.0
28320 C28 100.418 24.9437 44.7169 C 0.0 **** 0.0
28321 C29 101.559 24.9951 45.5008 C 0.0 **** 0.0
28322 C30 102.125 23.8229 46.0076 C 0.0 **** 0.0
28323 C31 101.54 22.5462 45.7508 C 0.0 **** 0.0
28324 C32 103.363 23.8689 46.8112 C 0.0 **** 0.0
28325 C33 103.892 25.2142 47.2757 C 0.0 **** 0.0
28326 C34 103.622 26.2773 46.1853 C 0.0 **** 0.0
28327 C35 102.143 26.3421 45.8765 C 0.0 **** 0.0
28328 C36 102.188 21.4245 46.2738 C 0.0 **** 0.0
28329 C37 103.422 21.4617 46.9773 C 0.0 **** 0.0
28330 C38 103.973 22.6785 47.2705 C 0.0 **** 0.0
28331 C39 100.738 16.7909 42.4827 C 0.0 **** 0.0
28332 C40 101.742 17.8013 42.8978 C 0.0 **** 0.0
28333 C41 101.238 19.0756 42.7958 C 0.0 **** 0.0
28334 C42 102.083 20.2056 42.9161 C 0.0 **** 0.0
28335 C43 103.41 20.0288 43.3034 C 0.0 **** 0.0
28336 C44 103.874 18.7376 43.6415 C 0.0 **** 0.0
28337 C45 103.035 17.604 43.3795 C 0.0 **** 0.0
28338 C46 103.49 16.314 43.6585 C 0.0 **** 0.0
28339 C47 104.686 16.1626 44.3877 C 0.0 **** 0.0
28340 C48 105.512 17.2729 44.6994 C 0.0 **** 0.0
28341 C49 105.084 18.5606 44.3821 C 0.0 **** 0.0
28342 C50 105.789 19.7283 44.7823 C 0.0 **** 0.0
28343 C51 105.327 21.0025 44.4499 C 0.0 **** 0.0
28344 C52 104.203 21.1784 43.6133 C 0.0 **** 0.0
28345 O53 91.0297 16.5799 38.3316 O 0.0 **** 0.0
28346 C54 90.3859 19.3034 39.0891 C 0.0 **** 0.0
28347 O55 97.9613 16.0165 41.3736 O 0.0 **** 0.0
28348 C56 104.973 14.8325 44.9992 C 0.0 **** 0.0
28349 C57 103.842 14.346 45.9251 C 0.0 **** 0.0
28350 O58 104.104 20.2528 47.3262 O 0.0 **** 0.0
28351 O59 99.9648 26.1098 44.1102 O 0.0 **** 0.0
28352 O60 106.747 19.6584 45.7778 O 0.0 **** 0.0
28353 H61 93.5028 15.8582 38.7903 H 0.0 **** 0.0
28354 H62 92.6738 20.551 39.8712 H 0.0 **** 0.0
28355 H63 96.2415 16.8007 39.2257 H 0.0 **** 0.0
28356 H64 95.5632 16.3031 40.8271 H 0.0 **** 0.0
28357 H65 94.4807 21.738 39.2535 H 0.0 **** 0.0
28358 H66 94.0953 22.0764 41.0141 H 0.0 **** 0.0
28359 H67 96.4417 23.0364 39.2349 H 0.0 **** 0.0
28360 H68 95.1138 24.0004 39.8694 H 0.0 **** 0.0
28361 H69 97.2085 24.3037 41.1316 H 0.0 **** 0.0
28362 H70 95.903 23.7607 42.1712 H 0.0 **** 0.0
28363 H71 98.7865 21.2778 45.2763 H 0.0 **** 0.0
28364 H72 97.8952 24.1302 43.729 H 0.0 **** 0.0
28365 H73 103.37 25.5366 48.1962 H 0.0 **** 0.0
28366 H74 104.972 25.2368 47.5249 H 0.0 **** 0.0
28367 H75 104.006 27.2433 46.6313 H 0.0 **** 0.0
28368 H76 104.215 26.0382 45.2565 H 0.0 **** 0.0
28369 H77 101.574 26.699 46.7444 H 0.0 **** 0.0
28370 H78 102.021 27.0666 45.0862 H 0.0 **** 0.0
28371 H79 101.786 20.5028 46.1151 H 0.0 **** 0.0
28372 H80 104.832 22.7202 47.8515 H 0.0 **** 0.0
28373 H81 100.571 16.0867 43.3572 H 0.0 **** 0.0
28374 H82 101.041 16.2007 41.6103 H 0.0 **** 0.0
28375 H83 101.685 21.216 42.8308 H 0.0 **** 0.0
28376 H84 102.912 15.4378 43.3764 H 0.0 **** 0.0
28377 H85 106.439 17.0809 45.2126 H 0.0 **** 0.0
28378 H86 105.857 21.8538 44.7974 H 0.0 **** 0.0
28379 H87 103.853 22.1943 43.4467 H 0.0 **** 0.0
28380 H88 91.3143 15.6286 38.2034 H 0.0 **** 0.0
28381 H89 90.2135 19.893 40.03 H 0.0 **** 0.0
28382 H90 89.599 18.5101 39.1156 H 0.0 **** 0.0
28383 H91 90.2318 19.8678 38.1622 H 0.0 **** 0.0
28384 H92 98.6316 15.3007 41.6729 H 0.0 **** 0.0
28385 H93 105.166 14.0815 44.1754 H 0.0 **** 0.0
28386 H94 104.043 13.3942 46.3853 H 0.0 **** 0.0
28387 H95 102.82 14.3242 45.4556 H 0.0 **** 0.0
28388 H96 103.744 15.0692 46.7624 H 0.0 **** 0.0
28389 H97 103.652 19.4261 46.9292 H 0.0 **** 0.0
28390 H98 99.0306 26.1027 43.7705 H 0.0 **** 0.0
28391 H99 107.027 18.807 46.211 H 0.0 **** 0.0
28392 H100 100.196 20.3022 44.8608 H 0.0 **** 0.0
28393 H101 99.1443 24.2768 42.4126 H 0.0 **** 0.0
28394 H102 105.902 14.8896 45.6545 H 0.0 **** 0.0
28395 C1 -1.00342 61.8139 40.1103 C 0.0 **** 0.0
28396 C2 0.0632768 62.2468 39.2649 C 0.0 **** 0.0
28397 C3 0.999376 61.3435 38.8151 C 0.0 **** 0.0
28398 C4 0.856929 59.9965 39.1197 C 0.0 **** 0.0
28399 C5 -0.324733 59.5251 39.7739 C 0.0 **** 0.0
28400 C6 -1.21034 60.4344 40.3626 C 0.0 **** 0.0
28401 C7 1.98504 59.291 38.438 C 0.0 **** 0.0
28402 C8 2.75433 60.2128 37.7375 C 0.0 **** 0.0
28403 C9 2.2106 61.5984 37.9483 C 0.0 **** 0.0
28404 C10 3.96376 59.8622 37.0836 C 0.0 **** 0.0
28405 C11 4.36849 58.4958 37.1337 C 0.0 **** 0.0
28406 C12 3.54953 57.5584 37.809 C 0.0 **** 0.0
28407 C13 2.408 57.9567 38.5684 C 0.0 **** 0.0
28408 C14 1.70037 56.9988 39.5145 C 0.0 **** 0.0
28409 C15 2.49002 55.7345 39.8191 C 0.0 **** 0.0
28410 C16 3.13003 55.0736 38.5839 C 0.0 **** 0.0
28411 C17 3.8479 56.1079 37.7203 C 0.0 **** 0.0
28412 C18 4.89256 55.6987 36.8227 C 0.0 **** 0.0
28413 C19 5.66196 56.6564 36.1168 C 0.0 **** 0.0
28414 C20 5.53539 58.0684 36.4095 C 0.0 **** 0.0
28415 C21 6.36157 59.0668 35.8524 C 0.0 **** 0.0
28416 C22 5.92795 60.3711 35.6627 C 0.0 **** 0.0
28417 C23 4.76798 60.8482 36.3291 C 0.0 **** 0.0
28418 C24 6.46089 56.0752 34.9379 C 0.0 **** 0.0
28419 C25 7.30193 54.8657 35.3814 C 0.0 **** 0.0
28420 C26 6.66733 53.9593 36.2523 C 0.0 **** 0.0
28421 C27 5.18563 54.2105 36.5887 C 0.0 **** 0.0
28422 C28 7.36264 52.8717 36.7808 C 0.0 **** 0.0
28423 C29 8.77782 52.7665 36.6541 C 0.0 **** 0.0
28424 C30 9.43043 53.6647 35.7811 C 0.0 **** 0.0
28425 C31 8.67605 54.6313 35.0531 C 0.0 **** 0.0
28426 C32 10.845 53.416 35.4148 C 0.0 **** 0.0
28427 C33 11.6387 52.3188 36.0484 C 0.0 **** 0.0
28428 C34 11.1095 51.9947 37.4317 C 0.0 **** 0.0
28429 C35 9.58966 51.72 37.4176 C 0.0 **** 0.0
28430 C36 9.3542 55.2904 33.9825 C 0.0 **** 0.0
28431 C37 10.6787 55.0838 33.6798 C 0.0 **** 0.0
28432 C38 11.4285 54.105 34.3575 C 0.0 **** 0.0
28433 C39 7.01873 61.1452 35.046 C 0.0 **** 0.0
28434 C40 8.11234 60.1227 35.0208 C 0.0 **** 0.0
28435 C41 7.68619 58.9732 35.5786 C 0.0 **** 0.0
28436 C42 8.59815 57.9915 36.0636 C 0.0 **** 0.0
28437 C43 9.95534 58.1817 35.7993 C 0.0 **** 0.0
28438 C44 10.3973 59.3635 35.1457 C 0.0 **** 0.0
28439 C45 9.45058 60.332 34.732 C 0.0 **** 0.0
28440 C46 9.90907 61.5775 34.2198 C 0.0 **** 0.0
28441 C47 11.2686 61.8586 34.1448 C 0.0 **** 0.0
28442 C48 12.1739 60.8614 34.4284 C 0.0 **** 0.0
28443 C49 11.7831 59.5979 34.9153 C 0.0 **** 0.0
28444 C50 12.763 58.6737 35.2855 C 0.0 **** 0.0
28445 C51 12.3187 57.5265 35.9087 C 0.0 **** 0.0
28446 C52 10.9467 57.2479 36.1601 C 0.0 **** 0.0
28447 O53 -1.85609 62.7867 40.6464 O 0.0 **** 0.0
28448 C54 -2.19744 59.9934 41.3886 C 0.0 **** 0.0
28449 O55 4.33704 62.1911 36.0923 O 0.0 **** 0.0
28450 C56 11.7543 63.2682 33.7981 C 0.0 **** 0.0
28451 C57 11.4209 64.2769 34.8947 C 0.0 **** 0.0
28452 O58 11.3362 55.8476 32.7427 O 0.0 **** 0.0
28453 O59 6.65729 51.7599 37.3064 O 0.0 **** 0.0
28454 O60 14.1388 58.8331 35.0252 O 0.0 **** 0.0
28455 H61 0.219814 63.3276 39.1176 H 0.0 **** 0.0
28456 H62 -0.541313 58.428 39.8708 H 0.0 **** 0.0
28457 H63 2.93833 62.2185 38.5308 H 0.0 **** 0.0
28458 H64 1.93765 62.1226 36.9827 H 0.0 **** 0.0
28459 H65 1.58502 57.5563 40.5472 H 0.0 **** 0.0
28460 H66 0.805592 56.5704 39.0607 H 0.0 **** 0.0
28461 H67 3.30642 56.0064 40.4977 H 0.0 **** 0.0
28462 H68 1.87264 55.0042 40.4053 H 0.0 **** 0.0
28463 H69 3.87393 54.359 39.0165 H 0.0 **** 0.0
28464 H70 2.41462 54.4974 37.9409 H 0.0 **** 0.0
28465 H71 5.72257 55.6463 34.2245 H 0.0 **** 0.0
28466 H72 4.64863 53.8406 35.7377 H 0.0 **** 0.0
28467 H73 11.606 51.4081 35.4247 H 0.0 **** 0.0
28468 H74 12.659 52.6582 36.15 H 0.0 **** 0.0
28469 H75 11.6035 51.0784 37.763 H 0.0 **** 0.0
28470 H76 11.3288 52.8752 38.1138 H 0.0 **** 0.0
28471 H77 9.42749 50.7121 37.0219 H 0.0 **** 0.0
28472 H78 9.27577 51.6345 38.4374 H 0.0 **** 0.0
28473 H79 8.84206 56.0258 33.4436 H 0.0 **** 0.0
28474 H80 12.506 53.9451 34.1207 H 0.0 **** 0.0
28475 H81 6.78865 61.5195 33.9901 H 0.0 **** 0.0
28476 H82 7.35398 61.9888 35.6709 H 0.0 **** 0.0
28477 H83 8.27569 57.2366 36.8001 H 0.0 **** 0.0
28478 H84 9.20023 62.3672 33.9681 H 0.0 **** 0.0
28479 H85 13.2447 61.1606 34.3399 H 0.0 **** 0.0
28480 H86 13.065 56.8389 36.2523 H 0.0 **** 0.0
28481 H87 10.6388 56.3349 36.6867 H 0.0 **** 0.0
28482 H88 -1.42646 63.6821 40.7132 H 0.0 **** 0.0
28483 H89 -2.10499 60.5909 42.3483 H 0.0 **** 0.0
28484 H90 -2.22524 58.9134 41.686 H 0.0 **** 0.0
28485 H91 -3.20425 60.2336 41.0306 H 0.0 **** 0.0
28486 H92 4.93326 62.6884 35.4582 H 0.0 **** 0.0
28487 H93 12.8455 63.3472 33.5507 H 0.0 **** 0.0
28488 H94 11.8705 65.2622 34.6638 H 0.0 **** 0.0
28489 H95 11.8569 63.942 35.8421 H 0.0 **** 0.0
28490 H96 10.3385 64.3738 35.0623 H 0.0 **** 0.0
28491 H97 10.7966 56.657 32.4596 H 0.0 **** 0.0
28492 H98 7.15738 50.9004 37.3279 H 0.0 **** 0.0
28493 H99 14.2705 59.335 34.1661 H 0.0 **** 0.0
28494 H100 7.02403 56.8288 34.3774 H 0.0 **** 0.0
28495 H101 4.9267 53.5628 37.4149 H 0.0 **** 0.0
28496 H102 11.248 63.6062 32.8987 H 0.0 **** 0.0
28497 C1 109.468 98.8957 68.5496 C 0.0 **** 0.0
28498 C2 109.502 97.5117 68.5327 C 0.0 **** 0.0
28499 C3 108.325 96.8205 68.264 C 0.0 **** 0.0
28500 C4 107.21 97.4917 67.7603 C 0.0 **** 0.0
28501 C5 107.177 98.8965 67.6552 C 0.0 **** 0.0
28502 C6 108.335 99.605 68.0695 C 0.0 **** 0.0
28503 C7 106.196 96.4414 67.4382 C 0.0 **** 0.0
28504 C8 106.731 95.2233 67.8343 C 0.0 **** 0.0
28505 C9 108.101 95.3847 68.3514 C 0.0 **** 0.0
28506 C10 105.99 94.0118 67.7507 C 0.0 **** 0.0
28507 C11 104.64 94.0676 67.2588 C 0.0 **** 0.0
28508 C12 104.18 95.2965 66.7168 C 0.0 **** 0.0
28509 C13 104.848 96.5177 66.9295 C 0.0 **** 0.0
28510 C14 104.233 97.8325 66.6148 C 0.0 **** 0.0
28511 C15 102.736 97.7739 66.2302 C 0.0 **** 0.0
28512 C16 102.463 96.5913 65.3023 C 0.0 **** 0.0
28513 C17 102.846 95.3248 66.1317 C 0.0 **** 0.0
28514 C18 102.009 94.2051 66.204 C 0.0 **** 0.0
28515 C19 102.52 92.9478 66.6331 C 0.0 **** 0.0
28516 C20 103.806 92.8861 67.2799 C 0.0 **** 0.0
28517 C21 104.333 91.7568 67.9127 C 0.0 **** 0.0
28518 C22 105.651 91.6434 68.1586 C 0.0 **** 0.0
28519 C23 106.525 92.7606 68.1532 C 0.0 **** 0.0
28520 C24 101.773 91.734 66.1039 C 0.0 **** 0.0
28521 C25 100.277 91.8794 66.4504 C 0.0 **** 0.0
28522 C26 99.7058 93.1969 66.2709 C 0.0 **** 0.0
28523 C27 100.563 94.3238 65.8022 C 0.0 **** 0.0
28524 C28 98.377 93.4512 66.6454 C 0.0 **** 0.0
28525 C29 97.6262 92.4528 67.2584 C 0.0 **** 0.0
28526 C30 98.1253 91.1595 67.3516 C 0.0 **** 0.0
28527 C31 99.4181 90.8304 66.9398 C 0.0 **** 0.0
28528 C32 97.3814 90.1123 68.041 C 0.0 **** 0.0
28529 C33 96.0467 90.4079 68.7302 C 0.0 **** 0.0
28530 C34 95.8209 91.912 68.8818 C 0.0 **** 0.0
28531 C35 96.218 92.7331 67.6557 C 0.0 **** 0.0
28532 C36 99.8457 89.5046 66.9321 C 0.0 **** 0.0
28533 C37 99.0419 88.4874 67.4358 C 0.0 **** 0.0
28534 C38 97.836 88.7889 68.0939 C 0.0 **** 0.0
28535 C39 105.997 90.364 68.7964 C 0.0 **** 0.0
28536 C40 104.682 89.76 68.9738 C 0.0 **** 0.0
28537 C41 103.713 90.6605 68.497 C 0.0 **** 0.0
28538 C42 102.372 90.4865 68.9017 C 0.0 **** 0.0
28539 C43 102.001 89.35 69.6494 C 0.0 **** 0.0
28540 C44 102.985 88.4787 70.1556 C 0.0 **** 0.0
28541 C45 104.358 88.681 69.7917 C 0.0 **** 0.0
28542 C46 105.375 88.0305 70.5011 C 0.0 **** 0.0
28543 C47 105.03 87.0886 71.4787 C 0.0 **** 0.0
28544 C48 103.728 86.7665 71.754 C 0.0 **** 0.0
28545 C49 102.648 87.4749 71.1168 C 0.0 **** 0.0
28546 C50 101.292 87.3956 71.5382 C 0.0 **** 0.0
28547 C51 100.31 88.217 70.999 C 0.0 **** 0.0
28548 C52 100.69 89.2013 70.0816 C 0.0 **** 0.0
28549 O53 110.587 99.5898 68.8771 O 0.0 **** 0.0
28550 C54 108.316 101.106 68.1177 C 0.0 **** 0.0
28551 O55 107.885 92.6634 68.4886 O 0.0 **** 0.0
28552 C56 106.158 86.583 72.3535 C 0.0 **** 0.0
28553 C57 106.988 85.5183 71.6503 C 0.0 **** 0.0
28554 O58 99.4295 87.1227 67.3489 O 0.0 **** 0.0
28555 O59 97.8016 94.6865 66.4387 O 0.0 **** 0.0
28556 O60 100.883 86.5139 72.5324 O 0.0 **** 0.0
28557 H61 110.37 97.018 68.9847 H 0.0 **** 0.0
28558 H62 106.306 99.4147 67.2848 H 0.0 **** 0.0
28559 H63 108.17 94.9777 69.3885 H 0.0 **** 0.0
28560 H64 108.785 94.8499 67.6757 H 0.0 **** 0.0
28561 H65 104.312 98.4663 67.5309 H 0.0 **** 0.0
28562 H66 104.768 98.3351 65.7935 H 0.0 **** 0.0
28563 H67 102.108 97.6276 67.1353 H 0.0 **** 0.0
28564 H68 102.334 98.7291 65.8048 H 0.0 **** 0.0
28565 H69 101.353 96.5578 64.9903 H 0.0 **** 0.0
28566 H70 103.129 96.6557 64.4053 H 0.0 **** 0.0
28567 H71 101.778 91.8295 64.966 H 0.0 **** 0.0
28568 H72 100.494 94.3672 64.708 H 0.0 **** 0.0
28569 H73 95.3006 89.99 68.0562 H 0.0 **** 0.0
28570 H74 95.982 89.8719 69.7249 H 0.0 **** 0.0
28571 H75 94.7321 92.032 69.0569 H 0.0 **** 0.0
28572 H76 96.4079 92.243 69.7711 H 0.0 **** 0.0
28573 H77 95.655 92.4122 66.774 H 0.0 **** 0.0
28574 H78 96.0376 93.7964 67.8629 H 0.0 **** 0.0
28575 H79 100.696 89.1724 66.4038 H 0.0 **** 0.0
28576 H80 97.2513 88.016 68.5659 H 0.0 **** 0.0
28577 H81 106.664 89.7317 68.1552 H 0.0 **** 0.0
28578 H82 106.455 90.5802 69.7561 H 0.0 **** 0.0
28579 H83 101.607 91.204 68.6895 H 0.0 **** 0.0
28580 H84 106.399 88.2573 70.2074 H 0.0 **** 0.0
28581 H85 103.524 85.9645 72.4376 H 0.0 **** 0.0
28582 H86 99.3369 88.2032 71.4301 H 0.0 **** 0.0
28583 H87 99.9292 89.8932 69.6984 H 0.0 **** 0.0
28584 H88 111.353 99.0032 69.1414 H 0.0 **** 0.0
28585 H89 107.723 101.429 69.0609 H 0.0 **** 0.0
28586 H90 107.675 101.544 67.2887 H 0.0 **** 0.0
28587 H91 109.334 101.542 68.0898 H 0.0 **** 0.0
28588 H92 108.087 91.7182 68.8142 H 0.0 **** 0.0
28589 H93 106.762 87.4705 72.5348 H 0.0 **** 0.0
28590 H94 107.727 85.1136 72.3396 H 0.0 **** 0.0
28591 H95 107.501 85.9672 70.7616 H 0.0 **** 0.0
28592 H96 106.329 84.6578 71.3248 H 0.0 **** 0.0
28593 H97 100.214 87.0083 66.7335 H 0.0 **** 0.0
28594 H98 98.1721 95.107 65.6063 H 0.0 **** 0.0
28595 H99 101.444 85.6887 72.6937 H 0.0 **** 0.0
28596 H100 102.24 90.7723 66.2534 H 0.0 **** 0.0
28597 H101 100.201 95.2779 66.1895 H 0.0 **** 0.0
28598 H102 105.76 86.242 73.3272 H 0.0 **** 0.0
28599 C1 87.4757 4.46624 84.5512 C 0.0 **** 0.0
28600 C2 86.6785 4.0274 85.6567 C 0.0 **** 0.0
28601 C3 85.3165 4.38953 85.6856 C 0.0 **** 0.0
28602 C4 84.7997 5.30925 84.8167 C 0.0 **** 0.0
28603 C5 85.5454 5.71246 83.7027 C 0.0 **** 0.0
28604 C6 86.8917 5.3076 83.5532 C 0.0 **** 0.0
28605 C7 83.408 5.62655 85.243 C 0.0 **** 0.0
28606 C8 83.0971 4.87398 86.3609 C 0.0 **** 0.0
28607 C9 84.3021 3.95532 86.7148 C 0.0 **** 0.0
28608 C10 81.8269 4.96648 86.9925 C 0.0 **** 0.0
28609 C11 80.9239 5.94832 86.5452 C 0.0 **** 0.0
28610 C12 81.2697 6.72892 85.4393 C 0.0 **** 0.0
28611 C13 82.5136 6.58442 84.7492 C 0.0 **** 0.0
28612 C14 82.8736 7.50393 83.6156 C 0.0 **** 0.0
28613 C15 81.9991 8.69513 83.5451 C 0.0 **** 0.0
28614 C16 80.5462 8.23257 83.5122 C 0.0 **** 0.0
28615 C17 80.2418 7.62852 84.8773 C 0.0 **** 0.0
28616 C18 78.9595 7.66119 85.4343 C 0.0 **** 0.0
28617 C19 78.7409 7.10562 86.6999 C 0.0 **** 0.0
28618 C20 79.7549 6.29232 87.3116 C 0.0 **** 0.0
28619 C21 79.6808 5.70227 88.5976 C 0.0 **** 0.0
28620 C22 80.3788 4.52985 88.8927 C 0.0 **** 0.0
28621 C23 81.4695 4.13906 88.1024 C 0.0 **** 0.0
28622 C24 77.506 7.54659 87.4111 C 0.0 **** 0.0
28623 C25 76.2549 7.62982 86.5765 C 0.0 **** 0.0
28624 C26 76.4028 7.81801 85.1757 C 0.0 **** 0.0
28625 C27 77.7743 8.04195 84.565 C 0.0 **** 0.0
28626 C28 75.2604 7.63249 84.3973 C 0.0 **** 0.0
28627 C29 74.0602 7.10928 84.9633 C 0.0 **** 0.0
28628 C30 73.9217 7.06215 86.3425 C 0.0 **** 0.0
28629 C31 74.9614 7.48138 87.1513 C 0.0 **** 0.0
28630 C32 72.6169 6.78099 86.9306 C 0.0 **** 0.0
28631 C33 71.4337 6.37707 86.0747 C 0.0 **** 0.0
28632 C34 71.5171 6.88304 84.6502 C 0.0 **** 0.0
28633 C35 72.8983 6.75421 84.0658 C 0.0 **** 0.0
28634 C36 74.7106 7.72875 88.5297 C 0.0 **** 0.0
28635 C37 73.4304 7.50844 89.08 C 0.0 **** 0.0
28636 C38 72.445 6.92132 88.3151 C 0.0 **** 0.0
28637 C39 80.0977 4.07289 90.2853 C 0.0 **** 0.0
28638 C40 79.3794 5.29096 90.8279 C 0.0 **** 0.0
28639 C41 79.2231 6.24958 89.8213 C 0.0 **** 0.0
28640 C42 78.8369 7.56131 90.1537 C 0.0 **** 0.0
28641 C43 78.4458 7.863 91.4717 C 0.0 **** 0.0
28642 C44 78.5848 6.90552 92.4861 C 0.0 **** 0.0
28643 C45 79.0249 5.56601 92.1639 C 0.0 **** 0.0
28644 C46 79.2001 4.62426 93.2174 C 0.0 **** 0.0
28645 C47 78.8943 4.95816 94.5543 C 0.0 **** 0.0
28646 C48 78.5824 6.28722 94.8424 C 0.0 **** 0.0
28647 C49 78.4073 7.26958 93.8482 C 0.0 **** 0.0
28648 C50 78.0308 8.59393 94.1556 C 0.0 **** 0.0
28649 C51 77.715 9.48804 93.1033 C 0.0 **** 0.0
28650 C52 77.8931 9.09539 91.7685 C 0.0 **** 0.0
28651 O53 88.778 4.00282 84.3692 O 0.0 **** 0.0
28652 C54 87.7007 5.67617 82.3372 C 0.0 **** 0.0
28653 O55 82.3157 3.08392 88.4861 O 0.0 **** 0.0
28654 C56 79.02 3.97474 95.6511 C 0.0 **** 0.0
28655 C57 80.4977 3.49308 95.8612 C 0.0 **** 0.0
28656 O58 73.0989 8.01297 90.321 O 0.0 **** 0.0
28657 O59 75.283 7.82901 82.9936 O 0.0 **** 0.0
28658 O60 78.0701 9.15983 95.4314 O 0.0 **** 0.0
28659 H61 87.0958 3.38198 86.4168 H 0.0 **** 0.0
28660 H62 85.1137 6.31298 82.906 H 0.0 **** 0.0
28661 H63 84.7296 4.17882 87.7058 H 0.0 **** 0.0
28662 H64 84.0673 2.8824 86.6783 H 0.0 **** 0.0
28663 H65 83.8683 7.90484 83.7737 H 0.0 **** 0.0
28664 H66 82.9176 6.9286 82.6955 H 0.0 **** 0.0
28665 H67 82.0836 9.42085 84.425 H 0.0 **** 0.0
28666 H68 82.2225 9.30061 82.6341 H 0.0 **** 0.0
28667 H69 79.8995 9.10986 83.2487 H 0.0 **** 0.0
28668 H70 80.338 7.4618 82.7169 H 0.0 **** 0.0
28669 H71 77.3131 6.7457 88.147 H 0.0 **** 0.0
28670 H72 77.8624 7.47045 83.6042 H 0.0 **** 0.0
28671 H73 71.3958 5.26452 86.0298 H 0.0 **** 0.0
28672 H74 70.5073 6.79018 86.4847 H 0.0 **** 0.0
28673 H75 70.8267 6.31233 83.9924 H 0.0 **** 0.0
28674 H76 71.2495 7.96674 84.6268 H 0.0 **** 0.0
28675 H77 73.0598 5.73536 83.6704 H 0.0 **** 0.0
28676 H78 72.897 7.37708 83.2078 H 0.0 **** 0.0
28677 H79 75.4833 8.10367 89.2058 H 0.0 **** 0.0
28678 H80 71.4644 6.71935 88.7422 H 0.0 **** 0.0
28679 H81 79.4197 3.2198 90.2933 H 0.0 **** 0.0
28680 H82 81.002 3.89008 90.92 H 0.0 **** 0.0
28681 H83 78.8966 8.40325 89.4734 H 0.0 **** 0.0
28682 H84 79.5856 3.65636 93.0251 H 0.0 **** 0.0
28683 H85 78.3064 6.47158 95.8506 H 0.0 **** 0.0
28684 H86 77.3553 10.4543 93.2953 H 0.0 **** 0.0
28685 H87 77.6218 9.80278 90.9972 H 0.0 **** 0.0
28686 H88 88.9814 3.28111 85.0117 H 0.0 **** 0.0
28687 H89 88.5848 6.32972 82.6144 H 0.0 **** 0.0
28688 H90 87.1403 6.35782 81.652 H 0.0 **** 0.0
28689 H91 88.113 4.82464 81.8117 H 0.0 **** 0.0
28690 H92 81.8864 2.46506 89.1625 H 0.0 **** 0.0
28691 H93 78.652 4.34082 96.613 H 0.0 **** 0.0
28692 H94 80.4581 2.5894 96.5287 H 0.0 **** 0.0
28693 H95 81.1098 4.30874 96.3219 H 0.0 **** 0.0
28694 H96 80.865 3.18969 94.8529 H 0.0 **** 0.0
28695 H97 73.8407 8.44647 90.8713 H 0.0 **** 0.0
28696 H98 76.1226 8.27351 82.6477 H 0.0 **** 0.0
28697 H99 78.7008 8.64341 96.0583 H 0.0 **** 0.0
28698 H100 77.6714 8.56495 87.7972 H 0.0 **** 0.0
28699 H101 77.8303 9.12528 84.3302 H 0.0 **** 0.0
28700 H102 78.3979 3.11863 95.3618 H 0.0 **** 0.0
28701 C1 65.7998 100.548 74.4776 C 0.0 **** 0.0
28702 C2 65.6301 101.258 75.7063 C 0.0 **** 0.0
28703 C3 66.739 101.338 76.5723 C 0.0 **** 0.0
28704 C4 67.9251 100.697 76.2764 C 0.0 **** 0.0
28705 C5 68.0459 99.8819 75.1479 C 0.0 **** 0.0
28706 C6 67.0413 99.8756 74.1773 C 0.0 **** 0.0
28707 C7 68.9133 101.044 77.2769 C 0.0 **** 0.0
28708 C8 68.3314 101.991 78.0576 C 0.0 **** 0.0
28709 C9 66.8959 102.233 77.6976 C 0.0 **** 0.0
28710 C10 69.0004 102.522 79.2046 C 0.0 **** 0.0
28711 C11 70.2532 101.941 79.6211 C 0.0 **** 0.0
28712 C12 70.7153 100.803 78.9018 C 0.0 **** 0.0
28713 C13 70.0127 100.318 77.7564 C 0.0 **** 0.0
28714 C14 70.4223 98.9847 77.1402 C 0.0 **** 0.0
28715 C15 71.2079 98.1579 78.0861 C 0.0 **** 0.0
28716 C16 72.4255 98.8868 78.6825 C 0.0 **** 0.0
28717 C17 71.9911 100.177 79.3371 C 0.0 **** 0.0
28718 C18 72.8546 100.861 80.2351 C 0.0 **** 0.0
28719 C19 72.4074 102.067 80.8566 C 0.0 **** 0.0
28720 C20 71.0629 102.529 80.6649 C 0.0 **** 0.0
28721 C21 70.3891 103.53 81.5322 C 0.0 **** 0.0
28722 C22 69.0773 103.867 81.1804 C 0.0 **** 0.0
28723 C23 68.4557 103.524 79.9613 C 0.0 **** 0.0
28724 C24 73.464 102.908 81.6056 C 0.0 **** 0.0
28725 C25 74.8995 102.718 81.137 C 0.0 **** 0.0
28726 C26 75.2429 101.579 80.4134 C 0.0 **** 0.0
28727 C27 74.2876 100.414 80.4831 C 0.0 **** 0.0
28728 C28 76.4944 101.471 79.7389 C 0.0 **** 0.0
28729 C29 77.4071 102.538 79.8636 C 0.0 **** 0.0
28730 C30 77.1118 103.603 80.7191 C 0.0 **** 0.0
28731 C31 75.856 103.705 81.3152 C 0.0 **** 0.0
28732 C32 78.0776 104.731 80.8373 C 0.0 **** 0.0
28733 C33 79.4463 104.662 80.208 C 0.0 **** 0.0
28734 C34 79.8154 103.256 79.7723 C 0.0 **** 0.0
28735 C35 78.6234 102.603 79.0121 C 0.0 **** 0.0
28736 C36 75.591 104.851 82.0894 C 0.0 **** 0.0
28737 C37 76.4238 105.968 82.1304 C 0.0 **** 0.0
28738 C38 77.6244 105.939 81.4337 C 0.0 **** 0.0
28739 C39 68.2888 104.283 82.3668 C 0.0 **** 0.0
28740 C40 69.2986 104.159 83.4318 C 0.0 **** 0.0
28741 C41 70.5579 103.969 82.9285 C 0.0 **** 0.0
28742 C42 71.6946 104.163 83.766 C 0.0 **** 0.0
28743 C43 71.5075 104.347 85.1564 C 0.0 **** 0.0
28744 C44 70.2152 104.219 85.6815 C 0.0 **** 0.0
28745 C45 69.1253 104.226 84.7865 C 0.0 **** 0.0
28746 C46 67.8187 104.118 85.2756 C 0.0 **** 0.0
28747 C47 67.5938 103.93 86.6469 C 0.0 **** 0.0
28748 C48 68.6589 104.153 87.5136 C 0.0 **** 0.0
28749 C49 69.9947 104.262 87.0957 C 0.0 **** 0.0
28750 C50 71.1015 104.515 87.9434 C 0.0 **** 0.0
28751 C51 72.3857 104.644 87.4079 C 0.0 **** 0.0
28752 C52 72.5773 104.6 86.0232 C 0.0 **** 0.0
28753 O53 64.713 100.446 73.5979 O 0.0 **** 0.0
28754 C54 67.247 99.1619 72.8624 C 0.0 **** 0.0
28755 O55 67.321 104.234 79.4826 O 0.0 **** 0.0
28756 C56 66.1993 103.5 87.0999 C 0.0 **** 0.0
28757 C57 65.6971 102.23 86.403 C 0.0 **** 0.0
28758 O58 76.1063 107.117 82.8341 O 0.0 **** 0.0
28759 O59 76.8084 100.409 78.8384 O 0.0 **** 0.0
28760 O60 70.9371 104.62 89.3293 O 0.0 **** 0.0
28761 H61 64.7458 101.885 75.8711 H 0.0 **** 0.0
28762 H62 69.0029 99.4683 74.8962 H 0.0 **** 0.0
28763 H63 66.2555 101.984 78.5205 H 0.0 **** 0.0
28764 H64 66.7514 103.312 77.3596 H 0.0 **** 0.0
28765 H65 69.4821 98.4167 76.9799 H 0.0 **** 0.0
28766 H66 70.9672 99.1709 76.2469 H 0.0 **** 0.0
28767 H67 70.5716 97.8687 78.9292 H 0.0 **** 0.0
28768 H68 71.5567 97.2806 77.5219 H 0.0 **** 0.0
28769 H69 72.7941 98.176 79.4569 H 0.0 **** 0.0
28770 H70 73.2479 99.0211 77.9 H 0.0 **** 0.0
28771 H71 73.2405 103.948 81.3454 H 0.0 **** 0.0
28772 H72 74.6803 99.5307 79.928 H 0.0 **** 0.0
28773 H73 79.499 105.392 79.3715 H 0.0 **** 0.0
28774 H74 80.2006 105.092 80.8896 H 0.0 **** 0.0
28775 H75 80.7443 103.196 79.2367 H 0.0 **** 0.0
28776 H76 79.9991 102.667 80.6917 H 0.0 **** 0.0
28777 H77 78.4289 103.259 78.1321 H 0.0 **** 0.0
28778 H78 78.9482 101.633 78.5839 H 0.0 **** 0.0
28779 H79 74.7894 104.823 82.7714 H 0.0 **** 0.0
28780 H80 78.3034 106.788 81.4781 H 0.0 **** 0.0
28781 H81 67.9732 105.34 82.3003 H 0.0 **** 0.0
28782 H82 67.4609 103.612 82.4895 H 0.0 **** 0.0
28783 H83 72.605 104.436 83.3026 H 0.0 **** 0.0
28784 H84 66.9588 104.035 84.6851 H 0.0 **** 0.0
28785 H85 68.423 104.002 88.5588 H 0.0 **** 0.0
28786 H86 73.2497 104.796 88.0124 H 0.0 **** 0.0
28787 H87 73.6157 104.78 85.687 H 0.0 **** 0.0
28788 H88 64.8925 99.8771 72.7459 H 0.0 **** 0.0
28789 H89 66.4392 98.3457 72.7915 H 0.0 **** 0.0
28790 H90 68.2892 98.772 72.7688 H 0.0 **** 0.0
28791 H91 67.0591 99.8989 72.0176 H 0.0 **** 0.0
28792 H92 66.8399 104.759 80.2186 H 0.0 **** 0.0
28793 H93 66.2596 103.202 88.191 H 0.0 **** 0.0
28794 H94 64.7716 101.897 86.9633 H 0.0 **** 0.0
28795 H95 66.4956 101.481 86.466 H 0.0 **** 0.0
28796 H96 65.367 102.384 85.363 H 0.0 **** 0.0
28797 H97 75.1234 107.139 83.1394 H 0.0 **** 0.0
28798 H98 76.0165 99.9062 78.5004 H 0.0 **** 0.0
28799 H99 70.1557 104.128 89.7294 H 0.0 **** 0.0
28800 H100 73.4555 102.529 82.6567 H 0.0 **** 0.0
28801 H101 74.284 100.05 81.5215 H 0.0 **** 0.0
28802 H102 65.4034 104.265 87.0267 H 0.0 **** 0.0
28803 C1 84.4638 77.343 85.1818 C 0.0 **** 0.0
28804 C2 85.6471 78.0774 85.2702 C 0.0 **** 0.0
28805 C3 85.6004 79.4911 85.1888 C 0.0 **** 0.0
28806 C4 84.3846 80.1727 85.0981 C 0.0 **** 0.0
28807 C5 83.1792 79.4233 85.1739 C 0.0 **** 0.0
28808 C6 83.2189 78.0058 85.1467 C 0.0 **** 0.0
28809 C7 84.7821 81.5966 85.0172 C 0.0 **** 0.0
28810 C8 86.1741 81.7263 85.0115 C 0.0 **** 0.0
28811 C9 86.7831 80.3585 85.1029 C 0.0 **** 0.0
28812 C10 86.8522 82.9619 84.9921 C 0.0 **** 0.0
28813 C11 86.0583 84.1415 85.058 C 0.0 **** 0.0
28814 C12 84.6097 84.0548 85.0635 C 0.0 **** 0.0
28815 C13 83.9765 82.7583 84.9952 C 0.0 **** 0.0
28816 C14 82.4748 82.661 84.931 C 0.0 **** 0.0
28817 C15 81.8365 83.961 84.3971 C 0.0 **** 0.0
28818 C16 82.2939 85.1875 85.2658 C 0.0 **** 0.0
28819 C17 83.8293 85.3035 85.308 C 0.0 **** 0.0
28820 C18 84.4992 86.4643 85.7804 C 0.0 **** 0.0
28821 C19 85.9126 86.4965 85.8156 C 0.0 **** 0.0
28822 C20 86.6688 85.4261 85.239 C 0.0 **** 0.0
28823 C21 88.0167 85.5218 84.8627 C 0.0 **** 0.0
28824 C22 88.7617 84.4074 84.7026 C 0.0 **** 0.0
28825 C23 88.2557 83.1087 84.8235 C 0.0 **** 0.0
28826 C24 86.5772 87.5594 86.6696 C 0.0 **** 0.0
28827 C25 85.9309 88.9454 86.4588 C 0.0 **** 0.0
28828 C26 84.5089 88.9804 86.4026 C 0.0 **** 0.0
28829 C27 83.7225 87.6792 86.2726 C 0.0 **** 0.0
28830 C28 83.827 90.2329 86.4425 C 0.0 **** 0.0
28831 C29 84.564 91.4406 86.4287 C 0.0 **** 0.0
28832 C30 85.9504 91.4034 86.4018 C 0.0 **** 0.0
28833 C31 86.6507 90.164 86.4786 C 0.0 **** 0.0
28834 C32 86.7348 92.6484 86.3426 C 0.0 **** 0.0
28835 C33 86.0753 93.9973 86.2026 C 0.0 **** 0.0
28836 C34 84.599 93.8412 85.7249 C 0.0 **** 0.0
28837 C35 83.8929 92.7952 86.6246 C 0.0 **** 0.0
28838 C36 88.0431 90.1746 86.5888 C 0.0 **** 0.0
28839 C37 88.7671 91.3466 86.4103 C 0.0 **** 0.0
28840 C38 88.1242 92.5604 86.3058 C 0.0 **** 0.0
28841 C39 90.1167 84.7462 84.1273 C 0.0 **** 0.0
28842 C40 89.9154 86.1714 83.8246 C 0.0 **** 0.0
28843 C41 88.7095 86.621 84.3485 C 0.0 **** 0.0
28844 C42 88.2542 87.8986 84.0531 C 0.0 **** 0.0
28845 C43 89.0364 88.7616 83.2488 C 0.0 **** 0.0
28846 C44 90.291 88.3267 82.7294 C 0.0 **** 0.0
28847 C45 90.7289 86.9997 82.9866 C 0.0 **** 0.0
28848 C46 91.9721 86.5744 82.5708 C 0.0 **** 0.0
28849 C47 92.7967 87.3989 81.8278 C 0.0 **** 0.0
28850 C48 92.4026 88.7222 81.5159 C 0.0 **** 0.0
28851 C49 91.1317 89.1834 81.9747 C 0.0 **** 0.0
28852 C50 90.6091 90.4806 81.7007 C 0.0 **** 0.0
28853 C51 89.3211 90.8186 82.0794 C 0.0 **** 0.0
28854 C52 88.5878 90.0146 82.8962 C 0.0 **** 0.0
28855 O53 84.4671 75.9554 84.9821 O 0.0 **** 0.0
28856 C54 81.9507 77.1816 85.0428 C 0.0 **** 0.0
28857 O55 89.1003 81.9839 84.8348 O 0.0 **** 0.0
28858 C56 94.0609 86.7891 81.2872 C 0.0 **** 0.0
28859 C57 94.0197 86.6276 79.7874 C 0.0 **** 0.0
28860 O58 90.1553 91.351 86.1634 O 0.0 **** 0.0
28861 O59 82.4487 90.2803 86.4638 O 0.0 **** 0.0
28862 O60 91.4134 91.4945 81.2111 O 0.0 **** 0.0
28863 H61 86.5884 77.5452 85.3892 H 0.0 **** 0.0
28864 H62 82.2307 79.9183 85.2072 H 0.0 **** 0.0
28865 H63 87.4344 80.067 84.323 H 0.0 **** 0.0
28866 H64 87.3279 80.2782 86.0298 H 0.0 **** 0.0
28867 H65 82.1419 81.8795 84.2564 H 0.0 **** 0.0
28868 H66 82.1217 82.5216 85.9856 H 0.0 **** 0.0
28869 H67 82.2039 84.0904 83.3656 H 0.0 **** 0.0
28870 H68 80.7227 83.9323 84.3041 H 0.0 **** 0.0
28871 H69 81.8722 86.0931 84.8005 H 0.0 **** 0.0
28872 H70 81.936 85.0054 86.2904 H 0.0 **** 0.0
28873 H71 86.3287 87.3511 87.7423 H 0.0 **** 0.0
28874 H72 83.2565 87.3872 87.2122 H 0.0 **** 0.0
28875 H73 86.1122 94.5579 87.1708 H 0.0 **** 0.0
28876 H74 86.5698 94.5931 85.4005 H 0.0 **** 0.0
28877 H75 84.1234 94.8228 85.7765 H 0.0 **** 0.0
28878 H76 84.5782 93.4584 84.6488 H 0.0 **** 0.0
28879 H77 84.0116 93.0693 87.6793 H 0.0 **** 0.0
28880 H78 82.8216 92.7956 86.4137 H 0.0 **** 0.0
28881 H79 88.6576 89.2624 86.6363 H 0.0 **** 0.0
28882 H80 88.7552 93.4034 86.0673 H 0.0 **** 0.0
28883 H81 90.9311 84.576 84.8934 H 0.0 **** 0.0
28884 H82 90.3009 84.1948 83.1735 H 0.0 **** 0.0
28885 H83 87.2761 88.1906 84.2326 H 0.0 **** 0.0
28886 H84 92.2803 85.5226 82.749 H 0.0 **** 0.0
28887 H85 93.0775 89.3181 80.934 H 0.0 **** 0.0
28888 H86 89.0027 91.799 81.8731 H 0.0 **** 0.0
28889 H87 87.5864 90.3236 83.1977 H 0.0 **** 0.0
28890 H88 85.3822 75.4976 85.0745 H 0.0 **** 0.0
28891 H89 81.8922 76.6768 84.0449 H 0.0 **** 0.0
28892 H90 81.0518 77.7771 85.3079 H 0.0 **** 0.0
28893 H91 81.9337 76.3675 85.7485 H 0.0 **** 0.0
28894 H92 90.0865 82.1631 84.6228 H 0.0 **** 0.0
28895 H93 94.862 87.4457 81.6058 H 0.0 **** 0.0
28896 H94 93.3776 87.4167 79.3491 H 0.0 **** 0.0
28897 H95 93.5594 85.683 79.487 H 0.0 **** 0.0
28898 H96 95.0362 86.7715 79.3563 H 0.0 **** 0.0
28899 H97 90.6118 90.4448 86.3974 H 0.0 **** 0.0
28900 H98 81.9087 89.448 86.6619 H 0.0 **** 0.0
28901 H99 92.3883 91.3134 81.198 H 0.0 **** 0.0
28902 H100 87.661 87.465 86.6454 H 0.0 **** 0.0
28903 H101 82.9137 87.8613 85.5066 H 0.0 **** 0.0
28904 H102 94.3507 85.784 81.6715 H 0.0 **** 0.0
28905 C1 22.3823 64.8998 58.1056 C 0.0 **** 0.0
28906 C2 22.3984 63.4798 58.0573 C 0.0 **** 0.0
28907 C3 23.5428 62.7906 57.6031 C 0.0 **** 0.0
28908 C4 24.6645 63.4736 57.2248 C 0.0 **** 0.0
28909 C5 24.651 64.886 57.1847 C 0.0 **** 0.0
28910 C6 23.5417 65.6079 57.7148 C 0.0 **** 0.0
28911 C7 25.6041 62.4899 56.5925 C 0.0 **** 0.0
28912 C8 25.0091 61.2471 56.7219 C 0.0 **** 0.0
28913 C9 23.6001 61.3197 57.272 C 0.0 **** 0.0
28914 C10 25.5573 60.1092 56.0905 C 0.0 **** 0.0
28915 C11 26.8394 60.2609 55.4509 C 0.0 **** 0.0
28916 C12 27.5726 61.43 55.6566 C 0.0 **** 0.0
28917 C13 26.9004 62.622 56.1058 C 0.0 **** 0.0
28918 C14 27.5836 63.9733 56.0045 C 0.0 **** 0.0
28919 C15 28.975 63.9051 55.3461 C 0.0 **** 0.0
28920 C16 29.7798 62.6775 55.7205 C 0.0 **** 0.0
28921 C17 29.0072 61.429 55.4228 C 0.0 **** 0.0
28922 C18 29.6908 60.1568 55.1384 C 0.0 **** 0.0
28923 C19 28.9075 59.0243 54.785 C 0.0 **** 0.0
28924 C20 27.4466 59.1184 54.8132 C 0.0 **** 0.0
28925 C21 26.5719 58.0071 54.5524 C 0.0 **** 0.0
28926 C22 25.3852 57.8088 55.2615 C 0.0 **** 0.0
28927 C23 24.9146 58.8192 56.1099 C 0.0 **** 0.0
28928 C24 29.5815 57.6427 54.6839 C 0.0 **** 0.0
28929 C25 30.9799 57.5353 55.2379 C 0.0 **** 0.0
28930 C26 31.7479 58.6819 55.532 C 0.0 **** 0.0
28931 C27 31.1442 60.0639 55.4571 C 0.0 **** 0.0
28932 C28 33.1144 58.5949 55.941 C 0.0 **** 0.0
28933 C29 33.752 57.3889 55.7613 C 0.0 **** 0.0
28934 C30 32.9602 56.2381 55.6288 C 0.0 **** 0.0
28935 C31 31.5647 56.2545 55.3645 C 0.0 **** 0.0
28936 C32 33.6189 54.8944 55.691 C 0.0 **** 0.0
28937 C33 35.1445 54.817 55.6998 C 0.0 **** 0.0
28938 C34 35.762 56.096 55.1529 C 0.0 **** 0.0
28939 C35 35.2393 57.2785 55.8098 C 0.0 **** 0.0
28940 C36 30.8413 55.0078 55.2429 C 0.0 **** 0.0
28941 C37 31.494 53.7751 55.47 C 0.0 **** 0.0
28942 C38 32.8599 53.7405 55.7182 C 0.0 **** 0.0
28943 C39 24.8324 56.432 55.0358 C 0.0 **** 0.0
28944 C40 25.7704 55.9437 53.9458 C 0.0 **** 0.0
28945 C41 26.693 56.9555 53.6496 C 0.0 **** 0.0
28946 C42 27.4464 56.9132 52.4559 C 0.0 **** 0.0
28947 C43 27.4328 55.7547 51.6605 C 0.0 **** 0.0
28948 C44 26.6727 54.6604 52.1152 C 0.0 **** 0.0
28949 C45 25.778 54.754 53.2216 C 0.0 **** 0.0
28950 C46 25.0092 53.6219 53.5992 C 0.0 **** 0.0
28951 C47 25.2528 52.3875 52.9919 C 0.0 **** 0.0
28952 C48 26.0057 52.3341 51.8439 C 0.0 **** 0.0
28953 C49 26.6786 53.4811 51.3414 C 0.0 **** 0.0
28954 C50 27.3584 53.398 50.1305 C 0.0 **** 0.0
28955 C51 28.1704 54.4823 49.7373 C 0.0 **** 0.0
28956 C52 28.1599 55.6896 50.4599 C 0.0 **** 0.0
28957 O53 21.2855 65.5936 58.5711 O 0.0 **** 0.0
28958 C54 23.6237 67.1066 57.8091 C 0.0 **** 0.0
28959 O55 23.8236 58.6157 56.9395 O 0.0 **** 0.0
28960 C56 24.7053 51.1224 53.5534 C 0.0 **** 0.0
28961 C57 25.7646 50.4319 54.4119 C 0.0 **** 0.0
28962 O58 30.8265 52.5347 55.3528 O 0.0 **** 0.0
28963 O59 33.824 59.6358 56.4886 O 0.0 **** 0.0
28964 O60 27.3 52.2442 49.3199 O 0.0 **** 0.0
28965 H61 21.4828 62.9337 58.2772 H 0.0 **** 0.0
28966 H62 25.519 65.4292 56.8169 H 0.0 **** 0.0
28967 H63 22.9261 61.06 56.4513 H 0.0 **** 0.0
28968 H64 23.4874 60.7454 58.1801 H 0.0 **** 0.0
28969 H65 26.9955 64.6944 55.3808 H 0.0 **** 0.0
28970 H66 27.6789 64.401 57.0114 H 0.0 **** 0.0
28971 H67 28.8528 63.9198 54.2533 H 0.0 **** 0.0
28972 H68 29.5608 64.8107 55.6641 H 0.0 **** 0.0
28973 H69 30.7163 62.6643 55.1588 H 0.0 **** 0.0
28974 H70 30.0 62.7003 56.8154 H 0.0 **** 0.0
28975 H71 29.0099 56.8823 55.2623 H 0.0 **** 0.0
28976 H72 31.3088 60.5426 56.4145 H 0.0 **** 0.0
28977 H73 35.5335 54.5325 56.7035 H 0.0 **** 0.0
28978 H74 35.3688 53.9849 55.017 H 0.0 **** 0.0
28979 H75 36.8201 56.046 55.2978 H 0.0 **** 0.0
28980 H76 35.5758 56.1978 54.0463 H 0.0 **** 0.0
28981 H77 35.6453 57.264 56.8473 H 0.0 **** 0.0
28982 H78 35.7462 58.1403 55.3014 H 0.0 **** 0.0
28983 H79 29.7642 54.9513 55.0633 H 0.0 **** 0.0
28984 H80 33.3894 52.8397 55.9064 H 0.0 **** 0.0
28985 H81 24.938 55.8401 55.9761 H 0.0 **** 0.0
28986 H82 23.8014 56.4024 54.5884 H 0.0 **** 0.0
28987 H83 28.0287 57.7767 52.1547 H 0.0 **** 0.0
28988 H84 24.3126 53.7193 54.3477 H 0.0 **** 0.0
28989 H85 26.0936 51.4068 51.2862 H 0.0 **** 0.0
28990 H86 28.811 54.3965 48.887 H 0.0 **** 0.0
28991 H87 28.7005 56.5631 50.1595 H 0.0 **** 0.0
28992 H88 20.6231 65.0826 59.1956 H 0.0 **** 0.0
28993 H89 22.7074 67.5443 58.1606 H 0.0 **** 0.0
28994 H90 23.7718 67.5517 56.7921 H 0.0 **** 0.0
28995 H91 24.4816 67.4001 58.4652 H 0.0 **** 0.0
28996 H92 23.4502 57.6609 56.9303 H 0.0 **** 0.0
28997 H93 23.8578 51.3918 54.2094 H 0.0 **** 0.0
28998 H94 25.2902 49.5371 54.8566 H 0.0 **** 0.0
28999 H95 26.0584 51.127 55.2446 H 0.0 **** 0.0
29000 H96 26.6556 50.0849 53.8796 H 0.0 **** 0.0
29001 H97 29.8678 52.6653 55.0514 H 0.0 **** 0.0
29002 H98 33.3514 60.4968 56.6092 H 0.0 **** 0.0
29003 H99 27.6729 52.4027 48.3927 H 0.0 **** 0.0
29004 H100 29.7022 57.3573 53.6051 H 0.0 **** 0.0
29005 H101 31.7524 60.5499 54.7113 H 0.0 **** 0.0
29006 H102 24.2897 50.3838 52.7389 H 0.0 **** 0.0
29007 C1 23.385 79.7342 77.0881 C 0.0 **** 0.0
29008 C2 24.6167 79.8437 76.3957 C 0.0 **** 0.0
29009 C3 25.0616 81.0784 75.9337 C 0.0 **** 0.0
29010 C4 24.2585 82.2187 76.0097 C 0.0 **** 0.0
29011 C5 23.0272 82.185 76.6454 C 0.0 **** 0.0
29012 C6 22.5792 80.9257 77.2094 C 0.0 **** 0.0
29013 C7 24.985 83.3133 75.3209 C 0.0 **** 0.0
29014 C8 26.1973 82.7917 74.8646 C 0.0 **** 0.0
29015 C9 26.3173 81.3112 75.1887 C 0.0 **** 0.0
29016 C10 27.1321 83.5927 74.187 C 0.0 **** 0.0
29017 C11 26.7656 84.9609 73.8939 C 0.0 **** 0.0
29018 C12 25.5136 85.4779 74.344 C 0.0 **** 0.0
29019 C13 24.5974 84.6714 75.0643 C 0.0 **** 0.0
29020 C14 23.2326 85.2137 75.4874 C 0.0 **** 0.0
29021 C15 22.8035 86.4378 74.6438 C 0.0 **** 0.0
29022 C16 23.8804 87.4907 74.5229 C 0.0 **** 0.0
29023 C17 25.2666 86.9402 74.2152 C 0.0 **** 0.0
29024 C18 26.3923 87.7484 74.0596 C 0.0 **** 0.0
29025 C19 27.5233 87.2242 73.4014 C 0.0 **** 0.0
29026 C20 27.6458 85.7843 73.1994 C 0.0 **** 0.0
29027 C21 28.7008 85.1223 72.4984 C 0.0 **** 0.0
29028 C22 29.0397 83.7774 72.7349 C 0.0 **** 0.0
29029 C23 28.3281 83.0341 73.665 C 0.0 **** 0.0
29030 C24 28.5945 88.179 72.9477 C 0.0 **** 0.0
29031 C25 28.6476 89.5679 73.5046 C 0.0 **** 0.0
29032 C26 27.6579 90.0135 74.4043 C 0.0 **** 0.0
29033 C27 26.413 89.1596 74.6303 C 0.0 **** 0.0
29034 C28 27.7168 91.3301 74.9459 C 0.0 **** 0.0
29035 C29 28.6618 92.2261 74.4757 C 0.0 **** 0.0
29036 C30 29.5937 91.7947 73.5159 C 0.0 **** 0.0
29037 C31 29.5861 90.4946 73.0405 C 0.0 **** 0.0
29038 C32 30.5275 92.8007 72.9312 C 0.0 **** 0.0
29039 C33 30.44 94.2876 73.2901 C 0.0 **** 0.0
29040 C34 29.0119 94.6031 73.7309 C 0.0 **** 0.0
29041 C35 28.5461 93.6849 74.8319 C 0.0 **** 0.0
29042 C36 30.5642 90.1762 72.0237 C 0.0 **** 0.0
29043 C37 31.5073 91.108 71.566 C 0.0 **** 0.0
29044 C38 31.5314 92.4126 72.0509 C 0.0 **** 0.0
29045 C39 30.2065 83.297 71.9158 C 0.0 **** 0.0
29046 C40 30.471 84.5412 71.1655 C 0.0 **** 0.0
29047 C41 29.5025 85.4971 71.4215 C 0.0 **** 0.0
29048 C42 29.4103 86.5584 70.5537 C 0.0 **** 0.0
29049 C43 30.4904 86.863 69.6892 C 0.0 **** 0.0
29050 C44 31.5034 85.8924 69.4492 C 0.0 **** 0.0
29051 C45 31.457 84.7047 70.2023 C 0.0 **** 0.0
29052 C46 32.3528 83.6675 69.8862 C 0.0 **** 0.0
29053 C47 33.356 83.8486 68.9332 C 0.0 **** 0.0
29054 C48 33.4172 85.0788 68.2306 C 0.0 **** 0.0
29055 C49 32.5062 86.1493 68.4839 C 0.0 **** 0.0
29056 C50 32.5809 87.4112 67.8416 C 0.0 **** 0.0
29057 C51 31.5903 88.3579 68.1026 C 0.0 **** 0.0
29058 C52 30.5645 88.0837 69.0435 C 0.0 **** 0.0
29059 O53 22.9145 78.4993 77.5515 O 0.0 **** 0.0
29060 C54 21.3354 80.9176 78.0119 C 0.0 **** 0.0
29061 O55 28.7465 81.7364 73.9984 O 0.0 **** 0.0
29062 C56 34.1897 82.7006 68.4873 C 0.0 **** 0.0
29063 C57 35.1672 82.1965 69.5507 C 0.0 **** 0.0
29064 O58 32.4419 90.7721 70.6054 O 0.0 **** 0.0
29065 O59 26.7955 91.7968 75.9211 O 0.0 **** 0.0
29066 O60 33.5512 87.7722 66.8916 O 0.0 **** 0.0
29067 H61 25.31 79.0373 76.3269 H 0.0 **** 0.0
29068 H62 22.4536 83.051 76.8363 H 0.0 **** 0.0
29069 H63 26.3516 80.7492 74.2756 H 0.0 **** 0.0
29070 H64 27.2054 81.2137 75.8295 H 0.0 **** 0.0
29071 H65 22.4924 84.4652 75.2441 H 0.0 **** 0.0
29072 H66 23.2317 85.4166 76.5582 H 0.0 **** 0.0
29073 H67 22.4102 86.1577 73.6545 H 0.0 **** 0.0
29074 H68 21.9462 86.9001 75.1624 H 0.0 **** 0.0
29075 H69 23.5106 88.1284 73.6794 H 0.0 **** 0.0
29076 H70 23.8945 88.0656 75.4764 H 0.0 **** 0.0
29077 H71 29.6011 87.7004 73.1073 H 0.0 **** 0.0
29078 H72 26.3186 89.0149 75.6819 H 0.0 **** 0.0
29079 H73 31.1547 94.527 74.0963 H 0.0 **** 0.0
29080 H74 30.7165 94.9092 72.4208 H 0.0 **** 0.0
29081 H75 29.0195 95.6411 74.1504 H 0.0 **** 0.0
29082 H76 28.3191 94.586 72.8923 H 0.0 **** 0.0
29083 H77 29.176 93.9382 75.7215 H 0.0 **** 0.0
29084 H78 27.5152 93.9534 75.1591 H 0.0 **** 0.0
29085 H79 30.5775 89.1734 71.59 H 0.0 **** 0.0
29086 H80 32.1143 93.184 71.5044 H 0.0 **** 0.0
29087 H81 31.0903 83.0583 72.5201 H 0.0 **** 0.0
29088 H82 29.8997 82.41 71.2667 H 0.0 **** 0.0
29089 H83 28.4855 87.0597 70.4426 H 0.0 **** 0.0
29090 H84 32.2839 82.7343 70.4176 H 0.0 **** 0.0
29091 H85 34.1728 85.2127 67.4985 H 0.0 **** 0.0
29092 H86 31.5705 89.2816 67.5596 H 0.0 **** 0.0
29093 H87 29.7299 88.8249 69.1597 H 0.0 **** 0.0
29094 H88 23.5081 77.7085 77.4073 H 0.0 **** 0.0
29095 H89 20.5331 81.5044 77.5506 H 0.0 **** 0.0
29096 H90 21.5678 81.3972 78.9907 H 0.0 **** 0.0
29097 H91 20.8708 79.8996 78.182 H 0.0 **** 0.0
29098 H92 29.5699 81.3654 73.525 H 0.0 **** 0.0
29099 H93 33.5374 81.8288 68.1982 H 0.0 **** 0.0
29100 H94 35.669 81.299 69.1769 H 0.0 **** 0.0
29101 H95 34.614 81.9025 70.4737 H 0.0 **** 0.0
29102 H96 35.9367 82.9411 69.8589 H 0.0 **** 0.0
29103 H97 32.4007 89.7812 70.3179 H 0.0 **** 0.0
29104 H98 26.1319 91.1035 76.2351 H 0.0 **** 0.0
29105 H99 33.9276 86.9672 66.3896 H 0.0 **** 0.0
29106 H100 28.3501 88.4127 71.9071 H 0.0 **** 0.0
29107 H101 25.5827 89.7641 74.1819 H 0.0 **** 0.0
29108 H102 34.7972 83.0503 67.5564 H 0.0 **** 0.0
29109 C1 95.5903 47.4105 77.2584 C 0.0 **** 0.0
29110 C2 96.0869 48.5999 76.6952 C 0.0 **** 0.0
29111 C3 95.5526 49.0485 75.4722 C 0.0 **** 0.0
29112 C4 94.5587 48.3394 74.8535 C 0.0 **** 0.0
29113 C5 94.0212 47.1821 75.4463 C 0.0 **** 0.0
29114 C6 94.5215 46.6925 76.6402 C 0.0 **** 0.0
29115 C7 94.2759 49.0346 73.5796 C 0.0 **** 0.0
29116 C8 95.0281 50.206 73.5373 C 0.0 **** 0.0
29117 C9 95.8459 50.3257 74.7954 C 0.0 **** 0.0
29118 C10 94.9508 51.1177 72.457 C 0.0 **** 0.0
29119 C11 93.9527 50.8313 71.4928 C 0.0 **** 0.0
29120 C12 93.247 49.5847 71.4972 C 0.0 **** 0.0
29121 C13 93.4377 48.6413 72.5258 C 0.0 **** 0.0
29122 C14 92.8202 47.2539 72.4431 C 0.0 **** 0.0
29123 C15 92.2975 46.9627 71.028 C 0.0 **** 0.0
29124 C16 91.3753 48.1148 70.568 C 0.0 **** 0.0
29125 C17 92.1863 49.3739 70.5215 C 0.0 **** 0.0
29126 C18 91.7424 50.4768 69.7761 C 0.0 **** 0.0
29127 C19 92.4274 51.698 69.8533 C 0.0 **** 0.0
29128 C20 93.6821 51.7569 70.4781 C 0.0 **** 0.0
29129 C21 94.63 52.7855 70.2714 C 0.0 **** 0.0
29130 C22 95.6125 53.0999 71.1813 C 0.0 **** 0.0
29131 C23 95.7394 52.31 72.3293 C 0.0 **** 0.0
29132 C24 91.6593 52.9829 69.5355 C 0.0 **** 0.0
29133 C25 90.8208 52.8448 68.2621 C 0.0 **** 0.0
29134 C26 90.2525 51.5756 67.9943 C 0.0 **** 0.0
29135 C27 90.5301 50.366 68.8803 C 0.0 **** 0.0
29136 C28 89.3678 51.3751 66.9291 C 0.0 **** 0.0
29137 C29 88.993 52.4661 66.1234 C 0.0 **** 0.0
29138 C30 89.628 53.7134 66.3204 C 0.0 **** 0.0
29139 C31 90.4836 53.977 67.4176 C 0.0 **** 0.0
29140 C32 89.2654 54.8736 65.4333 C 0.0 **** 0.0
29141 C33 88.278 54.6485 64.3023 C 0.0 **** 0.0
29142 C34 88.1947 53.1957 63.868 C 0.0 **** 0.0
29143 C35 87.8978 52.2941 65.0803 C 0.0 **** 0.0
29144 C36 90.8663 55.332 67.6729 C 0.0 **** 0.0
29145 C37 90.4755 56.3932 66.8391 C 0.0 **** 0.0
29146 C38 89.7131 56.1429 65.7476 C 0.0 **** 0.0
29147 C39 96.4401 54.253 70.6823 C 0.0 **** 0.0
29148 C40 95.8236 54.4732 69.336 C 0.0 **** 0.0
29149 C41 94.8619 53.5421 69.1228 C 0.0 **** 0.0
29150 C42 94.2202 53.4291 67.8617 C 0.0 **** 0.0
29151 C43 94.4018 54.4402 66.9372 C 0.0 **** 0.0
29152 C44 95.2761 55.4803 67.188 C 0.0 **** 0.0
29153 C45 96.0562 55.4742 68.3665 C 0.0 **** 0.0
29154 C46 97.0098 56.4655 68.5766 C 0.0 **** 0.0
29155 C47 97.0697 57.5902 67.7013 C 0.0 **** 0.0
29156 C48 96.3093 57.5752 66.501 C 0.0 **** 0.0
29157 C49 95.3588 56.5612 66.2566 C 0.0 **** 0.0
29158 C50 94.6465 56.5137 65.0622 C 0.0 **** 0.0
29159 C51 93.9118 55.3736 64.7855 C 0.0 **** 0.0
29160 C52 93.7351 54.3888 65.7234 C 0.0 **** 0.0
29161 O53 96.0745 46.9856 78.5155 O 0.0 **** 0.0
29162 C54 93.9781 45.4182 77.2772 C 0.0 **** 0.0
29163 O55 96.7367 52.6292 73.2591 O 0.0 **** 0.0
29164 C56 97.9557 58.7595 67.9913 C 0.0 **** 0.0
29165 C57 99.1348 58.8158 67.0191 C 0.0 **** 0.0
29166 O58 90.87 57.7083 67.0591 O 0.0 **** 0.0
29167 O59 88.9 50.1142 66.5468 O 0.0 **** 0.0
29168 O60 94.6622 57.4968 64.0666 O 0.0 **** 0.0
29169 H61 96.8585 49.1506 77.1867 H 0.0 **** 0.0
29170 H62 93.2402 46.6673 74.9708 H 0.0 **** 0.0
29171 H63 96.9561 50.3753 74.5868 H 0.0 **** 0.0
29172 H64 95.4804 51.1626 75.4082 H 0.0 **** 0.0
29173 H65 93.5786 46.4826 72.7216 H 0.0 **** 0.0
29174 H66 91.9793 47.2079 73.1471 H 0.0 **** 0.0
29175 H67 93.204 46.8623 70.3275 H 0.0 **** 0.0
29176 H68 91.7874 46.0308 70.9332 H 0.0 **** 0.0
29177 H69 91.0117 47.7739 69.5853 H 0.0 **** 0.0
29178 H70 90.4966 48.2179 71.2271 H 0.0 **** 0.0
29179 H71 90.9503 53.1463 70.3782 H 0.0 **** 0.0
29180 H72 89.6457 50.0451 69.4588 H 0.0 **** 0.0
29181 H73 87.2735 55.0913 64.5587 H 0.0 **** 0.0
29182 H74 88.6619 55.1976 63.418 H 0.0 **** 0.0
29183 H75 87.3903 53.0859 63.1137 H 0.0 **** 0.0
29184 H76 89.1255 52.903 63.387 H 0.0 **** 0.0
29185 H77 86.9164 52.4021 65.5216 H 0.0 **** 0.0
29186 H78 87.9515 51.247 64.6715 H 0.0 **** 0.0
29187 H79 91.4638 55.5363 68.5679 H 0.0 **** 0.0
29188 H80 89.4264 56.9996 65.1394 H 0.0 **** 0.0
29189 H81 96.2272 55.1475 71.3078 H 0.0 **** 0.0
29190 H82 97.5343 54.0577 70.5318 H 0.0 **** 0.0
29191 H83 93.5157 52.6263 67.6733 H 0.0 **** 0.0
29192 H84 97.7058 56.3742 69.4363 H 0.0 **** 0.0
29193 H85 96.4512 58.3622 65.8174 H 0.0 **** 0.0
29194 H86 93.4214 55.2926 63.8436 H 0.0 **** 0.0
29195 H87 93.0644 53.5884 65.5033 H 0.0 **** 0.0
29196 H88 96.9445 47.4299 78.758 H 0.0 **** 0.0
29197 H89 93.1756 44.9066 76.6878 H 0.0 **** 0.0
29198 H90 93.5699 45.5829 78.2498 H 0.0 **** 0.0
29199 H91 94.803 44.6784 77.4425 H 0.0 **** 0.0
29200 H92 97.0006 53.6032 73.1621 H 0.0 **** 0.0
29201 H93 97.3778 59.6869 67.9126 H 0.0 **** 0.0
29202 H94 98.904 58.3883 66.0076 H 0.0 **** 0.0
29203 H95 99.9612 58.241 67.4898 H 0.0 **** 0.0
29204 H96 99.4942 59.8638 66.891 H 0.0 **** 0.0
29205 H97 91.5287 57.7743 67.8039 H 0.0 **** 0.0
29206 H98 88.8181 49.4538 67.2904 H 0.0 **** 0.0
29207 H99 94.9706 58.4007 64.3658 H 0.0 **** 0.0
29208 H100 92.2852 53.8953 69.5647 H 0.0 **** 0.0
29209 H101 90.8443 49.5413 68.2089 H 0.0 **** 0.0
29210 H102 98.34 58.693 69.034 H 0.0 **** 0.0
29211 C1 45.4098 101.591 78.8671 C 0.0 **** 0.0
29212 C2 46.6538 101.14 79.307 C 0.0 **** 0.0
29213 C3 47.2357 100.071 78.6392 C 0.0 **** 0.0
29214 C4 46.7055 99.5402 77.5068 C 0.0 **** 0.0
29215 C5 45.5362 100.035 76.9719 C 0.0 **** 0.0
29216 C6 44.8275 101.054 77.7178 C 0.0 **** 0.0
29217 C7 47.5952 98.4959 76.968 C 0.0 **** 0.0
29218 C8 48.6882 98.4421 77.8196 C 0.0 **** 0.0
29219 C9 48.5496 99.4661 78.9465 C 0.0 **** 0.0
29220 C10 49.8223 97.6727 77.5977 C 0.0 **** 0.0
29221 C11 49.855 96.9609 76.3685 C 0.0 **** 0.0
29222 C12 48.7169 96.9187 75.5435 C 0.0 **** 0.0
29223 C13 47.5458 97.6235 75.8854 C 0.0 **** 0.0
29224 C14 46.3142 97.4803 75.0276 C 0.0 **** 0.0
29225 C15 46.2094 96.1031 74.3478 C 0.0 **** 0.0
29226 C16 47.4689 95.7646 73.5788 C 0.0 **** 0.0
29227 C17 48.7155 96.0174 74.3883 C 0.0 **** 0.0
29228 C18 49.9558 95.6077 73.87 C 0.0 **** 0.0
29229 C19 51.0873 95.7857 74.6639 C 0.0 **** 0.0
29230 C20 50.9918 96.2375 75.9981 C 0.0 **** 0.0
29231 C21 52.0223 96.1309 76.9494 C 0.0 **** 0.0
29232 C22 51.9643 96.7405 78.1748 C 0.0 **** 0.0
29233 C23 50.8991 97.5952 78.513 C 0.0 **** 0.0
29234 C24 52.2889 96.2892 73.8659 C 0.0 **** 0.0
29235 C25 52.5256 95.6393 72.5217 C 0.0 **** 0.0
29236 C26 51.4648 94.9314 71.9138 C 0.0 **** 0.0
29237 C27 50.0729 94.9865 72.4972 C 0.0 **** 0.0
29238 C28 51.6613 94.3465 70.6437 C 0.0 **** 0.0
29239 C29 52.9123 94.4247 69.9851 C 0.0 **** 0.0
29240 C30 53.9322 95.1668 70.5791 C 0.0 **** 0.0
29241 C31 53.7641 95.794 71.8122 C 0.0 **** 0.0
29242 C32 55.2338 95.3201 69.9074 C 0.0 **** 0.0
29243 C33 55.5234 94.6829 68.6133 C 0.0 **** 0.0
29244 C34 54.5466 93.5399 68.2856 C 0.0 **** 0.0
29245 C35 53.1078 93.9263 68.5879 C 0.0 **** 0.0
29246 C36 54.8331 96.5462 72.3329 C 0.0 **** 0.0
29247 C37 55.9787 96.8014 71.6169 C 0.0 **** 0.0
29248 C38 56.2088 96.2088 70.3908 C 0.0 **** 0.0
29249 C39 53.2001 96.4909 79.0278 C 0.0 **** 0.0
29250 C40 53.8755 95.5191 78.131 C 0.0 **** 0.0
29251 C41 53.156 95.2871 76.955 C 0.0 **** 0.0
29252 C42 53.4334 94.1823 76.1406 C 0.0 **** 0.0
29253 C43 54.5705 93.4311 76.4069 C 0.0 **** 0.0
29254 C44 55.3939 93.7289 77.5375 C 0.0 **** 0.0
29255 C45 55.0155 94.7908 78.4106 C 0.0 **** 0.0
29256 C46 55.7987 95.0195 79.5688 C 0.0 **** 0.0
29257 C47 56.8894 94.1846 79.8444 C 0.0 **** 0.0
29258 C48 57.1735 93.0714 79.0598 C 0.0 **** 0.0
29259 C49 56.5002 92.8853 77.8453 C 0.0 **** 0.0
29260 C50 56.7915 91.8046 76.9494 C 0.0 **** 0.0
29261 C51 55.9148 91.5248 75.8918 C 0.0 **** 0.0
29262 C52 54.8197 92.3251 75.6366 C 0.0 **** 0.0
29263 O53 44.736 102.579 79.6188 O 0.0 **** 0.0
29264 C54 43.5347 101.588 77.1699 C 0.0 **** 0.0
29265 O55 50.8591 98.2147 79.7378 O 0.0 **** 0.0
29266 C56 57.756 94.4183 81.0768 C 0.0 **** 0.0
29267 C57 56.9977 94.2788 82.4254 C 0.0 **** 0.0
29268 O58 56.976 97.6571 72.1191 O 0.0 **** 0.0
29269 O59 50.5911 93.7258 69.9759 O 0.0 **** 0.0
29270 O60 57.9598 91.0147 77.0447 O 0.0 **** 0.0
29271 H61 47.0749 101.461 80.2509 H 0.0 **** 0.0
29272 H62 45.1999 99.7258 75.9768 H 0.0 **** 0.0
29273 H63 48.5224 99.0189 80.0002 H 0.0 **** 0.0
29274 H64 49.3286 100.232 78.7912 H 0.0 **** 0.0
29275 H65 45.4644 97.4886 75.7474 H 0.0 **** 0.0
29276 H66 46.1873 98.3587 74.3074 H 0.0 **** 0.0
29277 H67 45.993 95.2962 75.1116 H 0.0 **** 0.0
29278 H68 45.2914 96.048 73.7329 H 0.0 **** 0.0
29279 H69 47.4122 94.6736 73.3623 H 0.0 **** 0.0
29280 H70 47.3912 96.28 72.6349 H 0.0 **** 0.0
29281 H71 52.1419 97.3582 73.6302 H 0.0 **** 0.0
29282 H72 49.3981 95.5395 71.8508 H 0.0 **** 0.0
29283 H73 55.498 95.4608 67.8027 H 0.0 **** 0.0
29284 H74 56.5842 94.2949 68.5697 H 0.0 **** 0.0
29285 H75 54.6255 93.3011 67.1792 H 0.0 **** 0.0
29286 H76 54.8152 92.6486 68.8973 H 0.0 **** 0.0
29287 H77 52.7687 94.6343 67.8417 H 0.0 **** 0.0
29288 H78 52.5546 92.9756 68.4366 H 0.0 **** 0.0
29289 H79 54.7678 96.9867 73.3118 H 0.0 **** 0.0
29290 H80 57.1376 96.4243 69.8134 H 0.0 **** 0.0
29291 H81 53.8426 97.3942 79.1025 H 0.0 **** 0.0
29292 H82 52.9154 96.0626 80.0148 H 0.0 **** 0.0
29293 H83 52.7645 93.8646 75.3191 H 0.0 **** 0.0
29294 H84 55.5638 95.8529 80.2292 H 0.0 **** 0.0
29295 H85 57.8813 92.3474 79.3436 H 0.0 **** 0.0
29296 H86 56.1127 90.7229 75.2025 H 0.0 **** 0.0
29297 H87 54.105 92.0298 74.8688 H 0.0 **** 0.0
29298 H88 45.2913 103.031 80.3613 H 0.0 **** 0.0
29299 H89 43.0103 100.858 76.4739 H 0.0 **** 0.0
29300 H90 43.7798 102.474 76.5672 H 0.0 **** 0.0
29301 H91 42.8583 101.793 78.0239 H 0.0 **** 0.0
29302 H92 51.5967 97.9193 80.335 H 0.0 **** 0.0
29303 H93 58.6732 93.7932 81.1074 H 0.0 **** 0.0
29304 H94 57.5437 94.8746 83.2172 H 0.0 **** 0.0
29305 H95 57.1081 93.2424 82.7268 H 0.0 **** 0.0
29306 H96 55.8737 94.5484 82.3719 H 0.0 **** 0.0
29307 H97 56.8011 98.0063 73.068 H 0.0 **** 0.0
29308 H98 49.6427 93.8384 70.3608 H 0.0 **** 0.0
29309 H99 58.6922 91.5053 77.5538 H 0.0 **** 0.0
29310 H100 53.1676 96.218 74.4952 H 0.0 **** 0.0
29311 H101 49.7277 93.9114 72.6382 H 0.0 **** 0.0
29312 H102 58.0821 95.4665 80.9821 H 0.0 **** 0.0
29313 C1 108.951 8.59944 34.2725 C 0.0 **** 0.0
29314 C2 107.579 8.73792 33.8903 C 0.0 **** 0.0
29315 C3 107.199 8.12891 32.6829 C 0.0 **** 0.0
29316 C4 108.037 7.33587 31.9285 C 0.0 **** 0.0
29317 C5 109.318 7.04335 32.4221 C 0.0 **** 0.0
29318 C6 109.781 7.69593 33.5768 C 0.0 **** 0.0
29319 C7 107.307 6.83285 30.7547 C 0.0 **** 0.0
29320 C8 105.983 7.20499 30.9067 C 0.0 **** 0.0
29321 C9 105.805 8.11568 32.0931 C 0.0 **** 0.0
29322 C10 105.034 6.91574 29.9268 C 0.0 **** 0.0
29323 C11 105.43 6.1655 28.7729 C 0.0 **** 0.0
29324 C12 106.756 5.66398 28.6623 C 0.0 **** 0.0
29325 C13 107.719 6.02458 29.6374 C 0.0 **** 0.0
29326 C14 109.142 5.55054 29.4508 C 0.0 **** 0.0
29327 C15 109.497 5.33058 27.9639 C 0.0 **** 0.0
29328 C16 108.549 4.38262 27.2825 C 0.0 **** 0.0
29329 C17 107.108 4.72413 27.5933 C 0.0 **** 0.0
29330 C18 106.038 4.24282 26.7946 C 0.0 **** 0.0
29331 C19 104.719 4.70631 26.9397 C 0.0 **** 0.0
29332 C20 104.476 5.83529 27.7909 C 0.0 **** 0.0
29333 C21 103.281 6.55079 27.7437 C 0.0 **** 0.0
29334 C22 102.863 7.1981 28.8676 C 0.0 **** 0.0
29335 C23 103.693 7.32556 30.0186 C 0.0 **** 0.0
29336 C24 103.562 3.75611 26.5393 C 0.0 **** 0.0
29337 C25 103.921 2.62455 25.5946 C 0.0 **** 0.0
29338 C26 105.267 2.40328 25.2284 C 0.0 **** 0.0
29339 C27 106.349 3.23241 25.7678 C 0.0 **** 0.0
29340 C28 105.612 1.37384 24.3159 C 0.0 **** 0.0
29341 C29 104.612 0.507192 23.9036 C 0.0 **** 0.0
29342 C30 103.296 0.651507 24.3175 C 0.0 **** 0.0
29343 C31 102.908 1.72101 25.1394 C 0.0 **** 0.0
29344 C32 102.369 -0.400186 23.9797 C 0.0 **** 0.0
29345 C33 102.765 -1.61983 23.2188 C 0.0 **** 0.0
29346 C34 103.906 -1.29705 22.2978 C 0.0 **** 0.0
29347 C35 105.076 -0.671971 23.0705 C 0.0 **** 0.0
29348 C36 101.55 1.76019 25.5888 C 0.0 **** 0.0
29349 C37 100.647 0.702566 25.3342 C 0.0 **** 0.0
29350 C38 101.091 -0.390572 24.5655 C 0.0 **** 0.0
29351 C39 101.476 7.72125 28.6756 C 0.0 **** 0.0
29352 C40 101.309 7.42412 27.2058 C 0.0 **** 0.0
29353 C41 102.396 6.79984 26.6729 C 0.0 **** 0.0
29354 C42 102.569 6.72117 25.3061 C 0.0 **** 0.0
29355 C43 101.449 6.95768 24.4836 C 0.0 **** 0.0
29356 C44 100.245 7.4276 25.0635 C 0.0 **** 0.0
29357 C45 100.196 7.68341 26.4335 C 0.0 **** 0.0
29358 C46 99.0623 8.21477 27.0301 C 0.0 **** 0.0
29359 C47 97.9333 8.36493 26.2709 C 0.0 **** 0.0
29360 C48 97.9615 8.16485 24.8768 C 0.0 **** 0.0
29361 C49 99.1411 7.74665 24.2313 C 0.0 **** 0.0
29362 C50 99.2834 7.57763 22.8521 C 0.0 **** 0.0
29363 C51 100.45 6.98042 22.2877 C 0.0 **** 0.0
29364 C52 101.571 6.74401 23.0715 C 0.0 **** 0.0
29365 O53 109.492 9.22333 35.4194 O 0.0 **** 0.0
29366 C54 111.161 7.4114 34.0723 C 0.0 **** 0.0
29367 O55 103.264 7.89111 31.2119 O 0.0 **** 0.0
29368 C56 96.6451 8.70633 26.9566 C 0.0 **** 0.0
29369 C57 96.6097 10.1877 27.2576 C 0.0 **** 0.0
29370 O58 99.4988 0.579433 26.1256 O 0.0 **** 0.0
29371 O59 106.931 1.10255 23.9087 O 0.0 **** 0.0
29372 O60 98.2261 7.88147 21.9672 O 0.0 **** 0.0
29373 H61 106.823 9.22978 34.528 H 0.0 **** 0.0
29374 H62 109.981 6.34088 31.9594 H 0.0 **** 0.0
29375 H63 105.466 9.12901 31.7696 H 0.0 **** 0.0
29376 H64 105.091 7.60649 32.79 H 0.0 **** 0.0
29377 H65 109.845 6.30168 29.7927 H 0.0 **** 0.0
29378 H66 109.29 4.62373 30.029 H 0.0 **** 0.0
29379 H67 109.38 6.35985 27.4887 H 0.0 **** 0.0
29380 H68 110.532 5.0032 27.8868 H 0.0 **** 0.0
29381 H69 108.831 4.36107 26.2067 H 0.0 **** 0.0
29382 H70 108.781 3.33811 27.665 H 0.0 **** 0.0
29383 H71 103.108 3.30012 27.4692 H 0.0 **** 0.0
29384 H72 107.124 2.50435 26.2792 H 0.0 **** 0.0
29385 H73 103.074 -2.37755 23.9668 H 0.0 **** 0.0
29386 H74 101.905 -1.99216 22.6251 H 0.0 **** 0.0
29387 H75 104.282 -2.21832 21.8181 H 0.0 **** 0.0
29388 H76 103.6 -0.52959 21.5774 H 0.0 **** 0.0
29389 H77 105.479 -1.45 23.7692 H 0.0 **** 0.0
29390 H78 105.896 -0.369142 22.3692 H 0.0 **** 0.0
29391 H79 101.179 2.51771 26.2014 H 0.0 **** 0.0
29392 H80 100.398 -1.23381 24.4401 H 0.0 **** 0.0
29393 H81 100.761 7.19227 29.2847 H 0.0 **** 0.0
29394 H82 101.524 8.84057 28.8547 H 0.0 **** 0.0
29395 H83 103.556 6.40927 24.8735 H 0.0 **** 0.0
29396 H84 98.9607 8.38961 28.1397 H 0.0 **** 0.0
29397 H85 97.0781 8.34451 24.3262 H 0.0 **** 0.0
29398 H86 100.466 6.69563 21.2282 H 0.0 **** 0.0
29399 H87 102.438 6.3161 22.648 H 0.0 **** 0.0
29400 H88 108.862 9.72492 35.994 H 0.0 **** 0.0
29401 H89 111.684 8.40592 34.2127 H 0.0 **** 0.0
29402 H90 111.783 6.73113 33.3993 H 0.0 **** 0.0
29403 H91 111.079 6.88647 35.04 H 0.0 **** 0.0
29404 H92 102.277 8.17971 31.1885 H 0.0 **** 0.0
29405 H93 95.8026 8.44281 26.2841 H 0.0 **** 0.0
29406 H94 96.124 10.7646 26.4664 H 0.0 **** 0.0
29407 H95 95.9333 10.4146 28.0984 H 0.0 **** 0.0
29408 H96 97.6229 10.5655 27.5316 H 0.0 **** 0.0
29409 H97 99.296 1.41029 26.6476 H 0.0 **** 0.0
29410 H98 107.679 1.47466 24.4719 H 0.0 **** 0.0
29411 H99 97.643 8.6412 22.2675 H 0.0 **** 0.0
29412 H100 102.779 4.37085 26.0455 H 0.0 **** 0.0
29413 H101 106.832 3.75099 24.8877 H 0.0 **** 0.0
29414 H102 96.5914 8.15254 27.8804 H 0.0 **** 0.0
29415 C1 19.5756 43.4346 37.939 C 0.0 **** 0.0
29416 C2 18.4061 44.1318 37.7911 C 0.0 **** 0.0
29417 C3 17.7121 44.0421 36.5414 C 0.0 **** 0.0
29418 C4 18.1988 43.263 35.5175 C 0.0 **** 0.0
29419 C5 19.3305 42.4877 35.6968 C 0.0 **** 0.0
29420 C6 19.9683 42.4949 36.9821 C 0.0 **** 0.0
29421 C7 17.4012 43.5457 34.324 C 0.0 **** 0.0
29422 C8 16.381 44.38 34.7344 C 0.0 **** 0.0
29423 C9 16.5316 44.8136 36.1854 C 0.0 **** 0.0
29424 C10 15.4549 44.8436 33.8178 C 0.0 **** 0.0
29425 C11 15.4512 44.3206 32.4842 C 0.0 **** 0.0
29426 C12 16.5773 43.5593 32.0659 C 0.0 **** 0.0
29427 C13 17.5997 43.2004 32.9539 C 0.0 **** 0.0
29428 C14 18.8623 42.5688 32.4662 C 0.0 **** 0.0
29429 C15 19.0205 42.502 30.9212 C 0.0 **** 0.0
29430 C16 17.7007 42.0939 30.2913 C 0.0 **** 0.0
29431 C17 16.6046 43.0366 30.6768 C 0.0 **** 0.0
29432 C18 15.4942 43.2536 29.8369 C 0.0 **** 0.0
29433 C19 14.3581 43.963 30.3141 C 0.0 **** 0.0
29434 C20 14.4265 44.6454 31.5548 C 0.0 **** 0.0
29435 C21 13.5096 45.6612 31.9254 C 0.0 **** 0.0
29436 C22 13.5075 46.1683 33.2299 C 0.0 **** 0.0
29437 C23 14.4663 45.7444 34.1917 C 0.0 **** 0.0
29438 C24 13.0531 43.5162 29.7187 C 0.0 **** 0.0
29439 C25 13.0515 43.4826 28.1886 C 0.0 **** 0.0
29440 C26 14.2482 43.0707 27.5496 C 0.0 **** 0.0
29441 C27 15.5195 42.79 28.4084 C 0.0 **** 0.0
29442 C28 14.294 42.8969 26.1456 C 0.0 **** 0.0
29443 C29 13.172 43.266 25.3694 C 0.0 **** 0.0
29444 C30 11.9673 43.6187 25.9933 C 0.0 **** 0.0
29445 C31 11.8754 43.6432 27.3872 C 0.0 **** 0.0
29446 C32 10.7137 43.7764 25.1822 C 0.0 **** 0.0
29447 C33 10.7369 43.6524 23.6422 C 0.0 **** 0.0
29448 C34 12.1109 44.0046 23.1247 C 0.0 **** 0.0
29449 C35 13.2112 43.1982 23.8943 C 0.0 **** 0.0
29450 C36 10.5762 43.7734 27.9933 C 0.0 **** 0.0
29451 C37 9.43524 43.8806 27.2423 C 0.0 **** 0.0
29452 C38 9.48838 43.8347 25.8487 C 0.0 **** 0.0
29453 C39 12.4562 47.1905 33.4394 C 0.0 **** 0.0
29454 C40 11.8604 47.2383 32.1294 C 0.0 **** 0.0
29455 C41 12.5694 46.4084 31.2466 C 0.0 **** 0.0
29456 C42 12.3158 46.5013 29.8512 C 0.0 **** 0.0
29457 C43 11.3126 47.3502 29.3634 C 0.0 **** 0.0
29458 C44 10.6105 48.2185 30.2686 C 0.0 **** 0.0
29459 C45 10.872 48.182 31.6737 C 0.0 **** 0.0
29460 C46 10.3579 49.204 32.5133 C 0.0 **** 0.0
29461 C47 9.58573 50.2691 31.9692 C 0.0 **** 0.0
29462 C48 9.21709 50.1911 30.5976 C 0.0 **** 0.0
29463 C49 9.73482 49.1883 29.7485 C 0.0 **** 0.0
29464 C50 9.44817 49.2432 28.3596 C 0.0 **** 0.0
29465 C51 10.0453 48.3228 27.5073 C 0.0 **** 0.0
29466 C52 10.9974 47.4016 28.0195 C 0.0 **** 0.0
29467 O53 20.3367 43.5078 39.1339 O 0.0 **** 0.0
29468 C54 21.1284 41.5928 37.266 C 0.0 **** 0.0
29469 O55 14.5252 46.3394 35.4678 O 0.0 **** 0.0
29470 C56 9.20921 51.47 32.7858 C 0.0 **** 0.0
29471 C57 7.9465 51.2458 33.6265 C 0.0 **** 0.0
29472 O58 8.21568 44.0997 27.8163 O 0.0 **** 0.0
29473 O59 15.4535 42.426 25.5321 O 0.0 **** 0.0
29474 O60 8.5496 50.1543 27.7928 O 0.0 **** 0.0
29475 H61 18.0236 44.8162 38.5695 H 0.0 **** 0.0
29476 H62 19.7631 41.8109 34.9824 H 0.0 **** 0.0
29477 H63 16.7501 45.9211 36.2743 H 0.0 **** 0.0
29478 H64 15.6941 44.5582 36.8638 H 0.0 **** 0.0
29479 H65 19.7626 43.1221 32.8438 H 0.0 **** 0.0
29480 H66 18.8738 41.5505 32.8991 H 0.0 **** 0.0
29481 H67 19.2107 43.5109 30.5796 H 0.0 **** 0.0
29482 H68 19.8382 41.7782 30.6032 H 0.0 **** 0.0
29483 H69 17.8387 42.1383 29.2408 H 0.0 **** 0.0
29484 H70 17.4269 41.0787 30.5865 H 0.0 **** 0.0
29485 H71 12.7992 42.4607 30.0266 H 0.0 **** 0.0
29486 H72 15.728 41.7129 28.4124 H 0.0 **** 0.0
29487 H73 10.4933 42.6112 23.3972 H 0.0 **** 0.0
29488 H74 10.025 44.2929 23.13 H 0.0 **** 0.0
29489 H75 12.2188 43.7841 21.9711 H 0.0 **** 0.0
29490 H76 12.2771 45.1179 23.1315 H 0.0 **** 0.0
29491 H77 13.2284 42.1295 23.5713 H 0.0 **** 0.0
29492 H78 14.1545 43.6528 23.5162 H 0.0 **** 0.0
29493 H79 10.423 43.7588 29.0847 H 0.0 **** 0.0
29494 H80 8.57776 43.8729 25.2627 H 0.0 **** 0.0
29495 H81 11.7287 46.7895 34.1997 H 0.0 **** 0.0
29496 H82 12.8445 48.1972 33.7064 H 0.0 **** 0.0
29497 H83 13.0284 46.0083 29.2069 H 0.0 **** 0.0
29498 H84 10.633 49.2724 33.5501 H 0.0 **** 0.0
29499 H85 8.6231 50.9852 30.2598 H 0.0 **** 0.0
29500 H86 9.87203 48.2835 26.4337 H 0.0 **** 0.0
29501 H87 11.4981 46.8658 27.2971 H 0.0 **** 0.0
29502 H88 20.1067 44.2672 39.757 H 0.0 **** 0.0
29503 H89 21.2956 40.8311 36.4691 H 0.0 **** 0.0
29504 H90 20.8838 41.0068 38.1638 H 0.0 **** 0.0
29505 H91 22.035 42.1394 37.4078 H 0.0 **** 0.0
29506 H92 13.8455 47.1037 35.5858 H 0.0 **** 0.0
29507 H93 10.047 51.7625 33.4448 H 0.0 **** 0.0
29508 H94 7.42002 52.2583 33.7554 H 0.0 **** 0.0
29509 H95 8.16148 50.7263 34.5444 H 0.0 **** 0.0
29510 H96 7.07941 50.6687 33.1402 H 0.0 **** 0.0
29511 H97 8.21815 44.1574 28.8202 H 0.0 **** 0.0
29512 H98 16.0787 41.8782 26.1352 H 0.0 **** 0.0
29513 H99 7.72859 50.3502 28.3898 H 0.0 **** 0.0
29514 H100 12.2118 44.0109 30.1175 H 0.0 **** 0.0
29515 H101 16.4035 43.286 27.9668 H 0.0 **** 0.0
29516 H102 9.05583 52.3466 32.1252 H 0.0 **** 0.0
29517 C1 -0.979439 63.1342 6.34548 C 0.0 **** 0.0
29518 C2 0.256815 63.4465 5.7874 C 0.0 **** 0.0
29519 C3 0.80506 62.6338 4.78458 C 0.0 **** 0.0
29520 C4 0.14436 61.4672 4.37136 C 0.0 **** 0.0
29521 C5 -1.09545 61.139 4.95078 C 0.0 **** 0.0
29522 C6 -1.6942 61.9773 5.92428 C 0.0 **** 0.0
29523 C7 1.05085 60.7905 3.40896 C 0.0 **** 0.0
29524 C8 2.18564 61.5615 3.25521 C 0.0 **** 0.0
29525 C9 2.10776 62.8124 4.12598 C 0.0 **** 0.0
29526 C10 3.32939 61.0886 2.59342 C 0.0 **** 0.0
29527 C11 3.22026 59.8702 1.83945 C 0.0 **** 0.0
29528 C12 2.04837 59.0988 1.98448 C 0.0 **** 0.0
29529 C13 0.969143 59.498 2.81701 C 0.0 **** 0.0
29530 C14 -0.0904136 58.5621 3.20215 C 0.0 **** 0.0
29531 C15 0.229618 57.0735 2.90736 C 0.0 **** 0.0
29532 C16 0.719655 57.0198 1.48435 C 0.0 **** 0.0
29533 C17 1.96248 57.8116 1.28214 C 0.0 **** 0.0
29534 C18 2.93347 57.4485 0.345083 C 0.0 **** 0.0
29535 C19 4.05843 58.3166 0.145609 C 0.0 **** 0.0
29536 C20 4.30996 59.3961 1.04914 C 0.0 **** 0.0
29537 C21 5.50877 60.1033 1.19396 C 0.0 **** 0.0
29538 C22 5.56142 61.387 1.71068 C 0.0 **** 0.0
29539 C23 4.50762 61.9012 2.47801 C 0.0 **** 0.0
29540 C24 4.6522 58.3028 -1.26323 C 0.0 **** 0.0
29541 C25 4.96478 56.8832 -1.74629 C 0.0 **** 0.0
29542 C26 4.08374 55.875 -1.41288 C 0.0 **** 0.0
29543 C27 2.86058 56.1459 -0.5273 C 0.0 **** 0.0
29544 C28 4.27008 54.5477 -1.90185 C 0.0 **** 0.0
29545 C29 5.45558 54.2339 -2.58268 C 0.0 **** 0.0
29546 C30 6.38036 55.2436 -2.8964 C 0.0 **** 0.0
29547 C31 6.05302 56.5808 -2.64933 C 0.0 **** 0.0
29548 C32 7.7782 54.8736 -3.27137 C 0.0 **** 0.0
29549 C33 8.28969 53.4668 -3.06331 C 0.0 **** 0.0
29550 C34 7.20851 52.4924 -2.45222 C 0.0 **** 0.0
29551 C35 5.78744 52.8743 -2.97622 C 0.0 **** 0.0
29552 C36 6.86845 57.5228 -3.29543 C 0.0 **** 0.0
29553 C37 8.05702 57.1701 -4.0145 C 0.0 **** 0.0
29554 C38 8.56995 55.8488 -3.90168 C 0.0 **** 0.0
29555 C39 6.89967 61.9906 1.52892 C 0.0 **** 0.0
29556 C40 7.61346 60.8107 0.834542 C 0.0 **** 0.0
29557 C41 6.80007 59.7771 0.719615 C 0.0 **** 0.0
29558 C42 7.29804 58.5025 0.329199 C 0.0 **** 0.0
29559 C43 8.61374 58.3408 -0.134209 C 0.0 **** 0.0
29560 C44 9.45274 59.5201 -0.114516 C 0.0 **** 0.0
29561 C45 8.95257 60.7553 0.400246 C 0.0 **** 0.0
29562 C46 9.76765 61.8242 0.494729 C 0.0 **** 0.0
29563 C47 11.1379 61.7111 0.215524 C 0.0 **** 0.0
29564 C48 11.6189 60.5496 -0.352301 C 0.0 **** 0.0
29565 C49 10.7773 59.4418 -0.615777 C 0.0 **** 0.0
29566 C50 11.2015 58.2264 -1.20633 C 0.0 **** 0.0
29567 C51 10.4236 57.0563 -1.06547 C 0.0 **** 0.0
29568 C52 9.14049 57.1184 -0.570291 C 0.0 **** 0.0
29569 O53 -1.49893 63.9257 7.3731 O 0.0 **** 0.0
29570 C54 -3.07844 61.7047 6.38249 C 0.0 **** 0.0
29571 O55 4.53845 63.1776 2.95349 O 0.0 **** 0.0
29572 C56 12.0012 62.9253 0.453568 C 0.0 **** 0.0
29573 C57 12.9913 62.771 1.63377 C 0.0 **** 0.0
29574 O58 8.83697 58.1213 -4.65302 O 0.0 **** 0.0
29575 O59 3.35091 53.5209 -1.64685 O 0.0 **** 0.0
29576 O60 12.4166 58.0505 -1.85123 O 0.0 **** 0.0
29577 H61 0.835497 64.3524 6.06613 H 0.0 **** 0.0
29578 H62 -1.72063 60.3341 4.59165 H 0.0 **** 0.0
29579 H63 2.94837 62.8454 4.84179 H 0.0 **** 0.0
29580 H64 2.08988 63.7629 3.58659 H 0.0 **** 0.0
29581 H65 -0.290195 58.5643 4.29304 H 0.0 **** 0.0
29582 H66 -0.983101 58.8502 2.64741 H 0.0 **** 0.0
29583 H67 1.05032 56.7106 3.56015 H 0.0 **** 0.0
29584 H68 -0.648173 56.4159 3.01435 H 0.0 **** 0.0
29585 H69 0.914158 55.9528 1.23514 H 0.0 **** 0.0
29586 H70 -0.0944432 57.4062 0.843896 H 0.0 **** 0.0
29587 H71 3.84281 58.6246 -1.86532 H 0.0 **** 0.0
29588 H72 1.99353 56.1539 -1.19461 H 0.0 **** 0.0
29589 H73 8.68151 53.0662 -4.03499 H 0.0 **** 0.0
29590 H74 9.14447 53.516 -2.31635 H 0.0 **** 0.0
29591 H75 7.49916 51.4439 -2.75202 H 0.0 **** 0.0
29592 H76 7.28204 52.543 -1.36428 H 0.0 **** 0.0
29593 H77 5.70542 52.8373 -4.11943 H 0.0 **** 0.0
29594 H78 5.09549 52.1472 -2.58442 H 0.0 **** 0.0
29595 H79 6.52535 58.5529 -3.27446 H 0.0 **** 0.0
29596 H80 9.55625 55.5738 -4.32923 H 0.0 **** 0.0
29597 H81 6.87828 62.8879 0.864163 H 0.0 **** 0.0
29598 H82 7.37636 62.2454 2.5319 H 0.0 **** 0.0
29599 H83 6.71539 57.5756 0.382559 H 0.0 **** 0.0
29600 H84 9.4013 62.7069 0.97529 H 0.0 **** 0.0
29601 H85 12.6121 60.5648 -0.674946 H 0.0 **** 0.0
29602 H86 10.8229 56.1325 -1.43369 H 0.0 **** 0.0
29603 H87 8.5753 56.2332 -0.541856 H 0.0 **** 0.0
29604 H88 -0.971133 64.7726 7.50583 H 0.0 **** 0.0
29605 H89 -3.71731 62.5917 6.2392 H 0.0 **** 0.0
29606 H90 -3.05832 61.45 7.49012 H 0.0 **** 0.0
29607 H91 -3.56536 60.8895 5.79463 H 0.0 **** 0.0
29608 H92 5.3366 63.7285 2.68944 H 0.0 **** 0.0
29609 H93 12.5836 63.1925 -0.451035 H 0.0 **** 0.0
29610 H94 12.5686 62.2588 2.52003 H 0.0 **** 0.0
29611 H95 13.4567 63.7208 1.94963 H 0.0 **** 0.0
29612 H96 13.7783 62.1019 1.27758 H 0.0 **** 0.0
29613 H97 8.42754 59.0415 -4.60254 H 0.0 **** 0.0
29614 H98 2.42836 53.822 -1.36414 H 0.0 **** 0.0
29615 H99 12.9574 58.8565 -2.05688 H 0.0 **** 0.0
29616 H100 5.50162 59.0366 -1.4216 H 0.0 **** 0.0
29617 H101 2.82949 55.3078 0.238732 H 0.0 **** 0.0
29618 H102 11.3633 63.8011 0.64555 H 0.0 **** 0.0
29619 C1 51.9547 93.634 87.5383 C 0.0 **** 0.0
29620 C2 51.7075 92.2451 87.541 C 0.0 **** 0.0
29621 C3 52.0805 91.4622 86.4221 C 0.0 **** 0.0
29622 C4 52.763 92.0526 85.3584 C 0.0 **** 0.0
29623 C5 53.0218 93.4437 85.3623 C 0.0 **** 0.0
29624 C6 52.62 94.2288 86.4527 C 0.0 **** 0.0
29625 C7 53.2273 90.926 84.5118 C 0.0 **** 0.0
29626 C8 52.9265 89.7383 85.1212 C 0.0 **** 0.0
29627 C9 52.0896 89.9533 86.3351 C 0.0 **** 0.0
29628 C10 53.5217 88.502 84.6794 C 0.0 **** 0.0
29629 C11 54.4984 88.5819 83.6386 C 0.0 **** 0.0
29630 C12 54.71 89.7836 82.9509 C 0.0 **** 0.0
29631 C13 53.9675 90.9225 83.333 C 0.0 **** 0.0
29632 C14 54.2113 92.1831 82.5489 C 0.0 **** 0.0
29633 C15 54.5039 91.8753 81.091 C 0.0 **** 0.0
29634 C16 55.7452 90.9969 80.9631 C 0.0 **** 0.0
29635 C17 55.6733 89.7881 81.845 C 0.0 **** 0.0
29636 C18 56.7108 88.7889 81.8272 C 0.0 **** 0.0
29637 C19 56.5078 87.63 82.5857 C 0.0 **** 0.0
29638 C20 55.2549 87.4381 83.2388 C 0.0 **** 0.0
29639 C21 54.7504 86.1876 83.6905 C 0.0 **** 0.0
29640 C22 53.7242 86.0966 84.5834 C 0.0 **** 0.0
29641 C23 53.154 87.2518 85.1544 C 0.0 **** 0.0
29642 C24 57.6984 86.7227 82.7675 C 0.0 **** 0.0
29643 C25 58.5888 86.5911 81.5394 C 0.0 **** 0.0
29644 C26 58.8124 87.7685 80.7689 C 0.0 **** 0.0
29645 C27 57.8994 88.967 80.9349 C 0.0 **** 0.0
29646 C28 59.8555 87.8003 79.8328 C 0.0 **** 0.0
29647 C29 60.5164 86.5948 79.5338 C 0.0 **** 0.0
29648 C30 60.1728 85.3798 80.1774 C 0.0 **** 0.0
29649 C31 59.2206 85.3552 81.1946 C 0.0 **** 0.0
29650 C32 60.8085 84.1017 79.7189 C 0.0 **** 0.0
29651 C33 61.713 84.054 78.4746 C 0.0 **** 0.0
29652 C34 61.4345 85.3288 77.6054 C 0.0 **** 0.0
29653 C35 61.5809 86.5623 78.4739 C 0.0 **** 0.0
29654 C36 59.0904 84.1359 81.9069 C 0.0 **** 0.0
29655 C37 59.7681 82.9582 81.5428 C 0.0 **** 0.0
29656 C38 60.5991 82.9567 80.419 C 0.0 **** 0.0
29657 C39 53.3226 84.7317 84.9312 C 0.0 **** 0.0
29658 C40 54.2545 83.9713 84.0091 C 0.0 **** 0.0
29659 C41 54.9802 84.8755 83.2823 C 0.0 **** 0.0
29660 C42 55.553 84.45 82.0676 C 0.0 **** 0.0
29661 C43 55.7006 83.0564 81.8443 C 0.0 **** 0.0
29662 C44 55.1249 82.1406 82.7524 C 0.0 **** 0.0
29663 C45 54.3245 82.5988 83.8076 C 0.0 **** 0.0
29664 C46 53.5151 81.6768 84.552 C 0.0 **** 0.0
29665 C47 53.5546 80.3255 84.2548 C 0.0 **** 0.0
29666 C48 54.5839 79.8671 83.3838 C 0.0 **** 0.0
29667 C49 55.4013 80.7517 82.6436 C 0.0 **** 0.0
29668 C50 56.3397 80.3194 81.6445 C 0.0 **** 0.0
29669 C51 56.6612 81.2375 80.5796 C 0.0 **** 0.0
29670 C52 56.3109 82.5964 80.7019 C 0.0 **** 0.0
29671 O53 51.5067 94.3859 88.6226 O 0.0 **** 0.0
29672 C54 53.0842 95.6448 86.545 C 0.0 **** 0.0
29673 O55 52.0685 87.1295 86.0165 O 0.0 **** 0.0
29674 C56 52.3589 79.4616 84.6731 C 0.0 **** 0.0
29675 C57 52.5781 78.4914 85.8314 C 0.0 **** 0.0
29676 O58 59.6655 81.8241 82.2731 O 0.0 **** 0.0
29677 O59 60.1888 88.929 79.0959 O 0.0 **** 0.0
29678 O60 56.9907 79.074 81.8095 O 0.0 **** 0.0
29679 H61 51.231 91.7329 88.3942 H 0.0 **** 0.0
29680 H62 53.5268 93.9466 84.5632 H 0.0 **** 0.0
29681 H63 51.0438 89.5953 86.0936 H 0.0 **** 0.0
29682 H64 52.5138 89.4841 87.2346 H 0.0 **** 0.0
29683 H65 53.2829 92.8055 82.6367 H 0.0 **** 0.0
29684 H66 55.016 92.6641 83.0697 H 0.0 **** 0.0
29685 H67 53.6491 91.3565 80.5908 H 0.0 **** 0.0
29686 H68 54.6656 92.8229 80.5503 H 0.0 **** 0.0
29687 H69 55.9828 90.7534 79.8713 H 0.0 **** 0.0
29688 H70 56.5942 91.598 81.3146 H 0.0 **** 0.0
29689 H71 58.3558 87.1393 83.5169 H 0.0 **** 0.0
29690 H72 58.5009 89.8234 81.3275 H 0.0 **** 0.0
29691 H73 62.7729 84.0662 78.8491 H 0.0 **** 0.0
29692 H74 61.4976 83.1874 77.8243 H 0.0 **** 0.0
29693 H75 62.0834 85.3734 76.7043 H 0.0 **** 0.0
29694 H76 60.3808 85.2768 77.2024 H 0.0 **** 0.0
29695 H77 62.5302 86.4333 79.051 H 0.0 **** 0.0
29696 H78 61.5925 87.493 77.8511 H 0.0 **** 0.0
29697 H79 58.4865 84.0887 82.7888 H 0.0 **** 0.0
29698 H80 61.0462 82.0395 80.092 H 0.0 **** 0.0
29699 H81 53.511 84.61 85.9922 H 0.0 **** 0.0
29700 H82 52.2581 84.489 84.7196 H 0.0 **** 0.0
29701 H83 55.9718 85.1353 81.4069 H 0.0 **** 0.0
29702 H84 52.7064 82.0676 85.1711 H 0.0 **** 0.0
29703 H85 54.647 78.8101 83.1414 H 0.0 **** 0.0
29704 H86 57.2392 80.9156 79.7345 H 0.0 **** 0.0
29705 H87 56.6058 83.2302 79.906 H 0.0 **** 0.0
29706 H88 51.405 93.837 89.4561 H 0.0 **** 0.0
29707 H89 53.204 96.1079 85.5277 H 0.0 **** 0.0
29708 H90 54.0409 95.7278 87.1091 H 0.0 **** 0.0
29709 H91 52.3388 96.2719 87.1049 H 0.0 **** 0.0
29710 H92 51.8609 86.1853 86.3266 H 0.0 **** 0.0
29711 H93 51.5007 80.1387 84.9426 H 0.0 **** 0.0
29712 H94 51.6889 77.783 85.9245 H 0.0 **** 0.0
29713 H95 52.9042 78.9634 86.756 H 0.0 **** 0.0
29714 H96 53.4636 77.8532 85.596 H 0.0 **** 0.0
29715 H97 59.1418 81.8827 83.1413 H 0.0 **** 0.0
29716 H98 59.6937 89.7483 79.367 H 0.0 **** 0.0
29717 H99 57.6457 79.0643 82.5823 H 0.0 **** 0.0
29718 H100 57.4148 85.735 83.22 H 0.0 **** 0.0
29719 H101 57.53 89.2396 79.9565 H 0.0 **** 0.0
29720 H102 52.0474 78.9189 83.7495 H 0.0 **** 0.0
29721 C1 6.80394 80.0895 45.4723 C 0.0 **** 0.0
29722 C2 5.73201 79.8261 44.5991 C 0.0 **** 0.0
29723 C3 5.96289 79.1267 43.4265 C 0.0 **** 0.0
29724 C4 7.24344 78.752 43.0686 C 0.0 **** 0.0
29725 C5 8.30692 78.8726 44.0152 C 0.0 **** 0.0
29726 C6 8.06328 79.5992 45.2135 C 0.0 **** 0.0
29727 C7 7.21796 78.2621 41.6776 C 0.0 **** 0.0
29728 C8 5.88882 78.292 41.289 C 0.0 **** 0.0
29729 C9 4.98137 78.8064 42.3581 C 0.0 **** 0.0
29730 C10 5.50086 77.7362 40.0832 C 0.0 **** 0.0
29731 C11 6.50287 77.1937 39.2136 C 0.0 **** 0.0
29732 C12 7.87932 77.3803 39.5285 C 0.0 **** 0.0
29733 C13 8.2737 77.9327 40.7642 C 0.0 **** 0.0
29734 C14 9.70338 78.2609 41.0415 C 0.0 **** 0.0
29735 C15 10.4859 78.6161 39.7488 C 0.0 **** 0.0
29736 C16 10.3967 77.4101 38.7744 C 0.0 **** 0.0
29737 C17 8.9115 77.0219 38.5168 C 0.0 **** 0.0
29738 C18 8.57421 76.1718 37.4228 C 0.0 **** 0.0
29739 C19 7.21818 75.8133 37.3048 C 0.0 **** 0.0
29740 C20 6.17401 76.5438 38.0042 C 0.0 **** 0.0
29741 C21 4.83163 76.5625 37.6183 C 0.0 **** 0.0
29742 C22 3.84166 77.0315 38.4502 C 0.0 **** 0.0
29743 C23 4.10714 77.634 39.6865 C 0.0 **** 0.0
29744 C24 6.98885 74.3991 36.8014 C 0.0 **** 0.0
29745 C25 7.68669 74.0999 35.4708 C 0.0 **** 0.0
29746 C26 8.93728 74.7521 35.2482 C 0.0 **** 0.0
29747 C27 9.54947 75.6241 36.3785 C 0.0 **** 0.0
29748 C28 9.61137 74.512 33.9927 C 0.0 **** 0.0
29749 C29 8.96091 73.8127 32.9033 C 0.0 **** 0.0
29750 C30 7.70407 73.215 33.1641 C 0.0 **** 0.0
29751 C31 7.07445 73.3418 34.4313 C 0.0 **** 0.0
29752 C32 7.02294 72.4779 32.0635 C 0.0 **** 0.0
29753 C33 7.61021 72.4943 30.6585 C 0.0 **** 0.0
29754 C34 8.65578 73.6063 30.4397 C 0.0 **** 0.0
29755 C35 9.62628 73.5228 31.5963 C 0.0 **** 0.0
29756 C36 5.88325 72.6258 34.6151 C 0.0 **** 0.0
29757 C37 5.29992 71.8427 33.6062 C 0.0 **** 0.0
29758 C38 5.89143 71.73 32.3358 C 0.0 **** 0.0
29759 C39 2.46586 76.8702 37.8136 C 0.0 **** 0.0
29760 C40 2.88928 76.365 36.4875 C 0.0 **** 0.0
29761 C41 4.2676 76.3229 36.3763 C 0.0 **** 0.0
29762 C42 4.92847 76.1618 35.172 C 0.0 **** 0.0
29763 C43 4.17679 75.8346 34.0266 C 0.0 **** 0.0
29764 C44 2.76594 75.687 34.1706 C 0.0 **** 0.0
29765 C45 2.08498 75.9996 35.4069 C 0.0 **** 0.0
29766 C46 0.701794 75.9831 35.4058 C 0.0 **** 0.0
29767 C47 -0.00199582 75.5104 34.2947 C 0.0 **** 0.0
29768 C48 0.686111 75.057 33.1647 C 0.0 **** 0.0
29769 C49 2.07016 75.2007 33.0554 C 0.0 **** 0.0
29770 C50 2.77702 74.7478 31.891 C 0.0 **** 0.0
29771 C51 4.15121 75.0111 31.7496 C 0.0 **** 0.0
29772 C52 4.8115 75.5597 32.8202 C 0.0 **** 0.0
29773 O53 6.62154 80.9071 46.5991 O 0.0 **** 0.0
29774 C54 9.16632 79.8083 46.245 C 0.0 **** 0.0
29775 O55 3.12043 78.1123 40.458 O 0.0 **** 0.0
29776 C56 -1.48945 75.3801 34.3441 C 0.0 **** 0.0
29777 C57 -2.15728 76.6971 33.8429 C 0.0 **** 0.0
29778 O58 4.17459 71.0527 33.8758 O 0.0 **** 0.0
29779 O59 10.947 74.8736 33.8011 O 0.0 **** 0.0
29780 O60 2.03906 74.3884 30.7525 O 0.0 **** 0.0
29781 H61 4.75541 80.1913 44.8548 H 0.0 **** 0.0
29782 H62 9.27929 78.4361 43.9434 H 0.0 **** 0.0
29783 H63 4.53057 79.681 41.9377 H 0.0 **** 0.0
29784 H64 4.24597 78.0637 42.7548 H 0.0 **** 0.0
29785 H65 9.69423 79.1578 41.6807 H 0.0 **** 0.0
29786 H66 10.2452 77.4198 41.5257 H 0.0 **** 0.0
29787 H67 10.0175 79.5306 39.2881 H 0.0 **** 0.0
29788 H68 11.5198 78.8099 40.0406 H 0.0 **** 0.0
29789 H69 10.942 77.695 37.8259 H 0.0 **** 0.0
29790 H70 10.9293 76.4844 39.1933 H 0.0 **** 0.0
29791 H71 7.45944 73.7302 37.5627 H 0.0 **** 0.0
29792 H72 10.2615 74.9949 36.9335 H 0.0 **** 0.0
29793 H73 8.12578 71.5009 30.4554 H 0.0 **** 0.0
29794 H74 6.77806 72.5998 29.9352 H 0.0 **** 0.0
29795 H75 9.08776 73.5502 29.4861 H 0.0 **** 0.0
29796 H76 8.08711 74.6139 30.5396 H 0.0 **** 0.0
29797 H77 10.0326 72.4943 31.6857 H 0.0 **** 0.0
29798 H78 10.4472 74.2144 31.4733 H 0.0 **** 0.0
29799 H79 5.39756 72.6604 35.5776 H 0.0 **** 0.0
29800 H80 5.44207 71.1246 31.5568 H 0.0 **** 0.0
29801 H81 1.94647 76.0224 38.3362 H 0.0 **** 0.0
29802 H82 1.81955 77.8094 37.7393 H 0.0 **** 0.0
29803 H83 5.98802 76.3126 35.0694 H 0.0 **** 0.0
29804 H84 0.169042 76.3386 36.3077 H 0.0 **** 0.0
29805 H85 0.0826875 74.7127 32.3387 H 0.0 **** 0.0
29806 H86 4.69624 74.772 30.8307 H 0.0 **** 0.0
29807 H87 5.84931 75.7336 32.7262 H 0.0 **** 0.0
29808 H88 5.66078 81.3048 46.6353 H 0.0 **** 0.0
29809 H89 10.1504 79.467 45.8296 H 0.0 **** 0.0
29810 H90 8.92559 79.226 47.1495 H 0.0 **** 0.0
29811 H91 9.25945 80.9083 46.4421 H 0.0 **** 0.0
29812 H92 2.15837 77.8192 40.1016 H 0.0 **** 0.0
29813 H93 -1.82036 74.5613 33.7049 H 0.0 **** 0.0
29814 H94 -3.2567 76.5671 33.8667 H 0.0 **** 0.0
29815 H95 -1.82594 76.9265 32.8091 H 0.0 **** 0.0
29816 H96 -1.83898 77.5645 34.5172 H 0.0 **** 0.0
29817 H97 3.79767 71.1986 34.7765 H 0.0 **** 0.0
29818 H98 11.4083 75.2326 34.6398 H 0.0 **** 0.0
29819 H99 1.29272 73.8018 30.9612 H 0.0 **** 0.0
29820 H100 5.93194 74.2042 36.787 H 0.0 **** 0.0
29821 H101 10.067 76.485 35.9282 H 0.0 **** 0.0
29822 H102 -1.75067 75.1981 35.408 H 0.0 **** 0.0
29823 C1 72.5955 82.934 68.1183 C 0.0 **** 0.0
29824 C2 72.8305 83.7565 67.0322 C 0.0 **** 0.0
29825 C3 73.6501 83.2818 65.9978 C 0.0 **** 0.0
29826 C4 74.2161 82.0404 66.0024 C 0.0 **** 0.0
29827 C5 73.9129 81.1529 67.0524 C 0.0 **** 0.0
29828 C6 73.1492 81.6258 68.1601 C 0.0 **** 0.0
29829 C7 75.0469 81.8958 64.8166 C 0.0 **** 0.0
29830 C8 74.9508 83.0645 64.1286 C 0.0 **** 0.0
29831 C9 74.1137 84.0834 64.8567 C 0.0 **** 0.0
29832 C10 75.7463 83.3374 62.9798 C 0.0 **** 0.0
29833 C11 76.6894 82.3448 62.57 C 0.0 **** 0.0
29834 C12 76.7935 81.1396 63.2815 C 0.0 **** 0.0
29835 C13 76.0354 80.9484 64.4747 C 0.0 **** 0.0
29836 C14 76.4387 79.9359 65.4944 C 0.0 **** 0.0
29837 C15 77.8297 79.321 65.2207 C 0.0 **** 0.0
29838 C16 77.9545 78.9405 63.764 C 0.0 **** 0.0
29839 C17 77.8047 80.158 62.9007 C 0.0 **** 0.0
29840 C18 78.5078 80.3146 61.685 C 0.0 **** 0.0
29841 C19 78.2018 81.4554 60.8484 C 0.0 **** 0.0
29842 C20 77.5083 82.5497 61.3867 C 0.0 **** 0.0
29843 C21 77.5082 83.8384 60.8104 C 0.0 **** 0.0
29844 C22 76.5821 84.7946 61.215 C 0.0 **** 0.0
29845 C23 75.662 84.5628 62.2689 C 0.0 **** 0.0
29846 C24 78.4252 81.2236 59.3379 C 0.0 **** 0.0
29847 C25 79.8163 80.7126 59.0347 C 0.0 **** 0.0
29848 C26 80.3365 79.7736 59.9186 C 0.0 **** 0.0
29849 C27 79.5209 79.3405 61.1435 C 0.0 **** 0.0
29850 C28 81.6179 79.2321 59.7058 C 0.0 **** 0.0
29851 C29 82.3604 79.5558 58.5743 C 0.0 **** 0.0
29852 C30 81.8161 80.4105 57.6285 C 0.0 **** 0.0
29853 C31 80.544 81.0104 57.8389 C 0.0 **** 0.0
29854 C32 82.5143 80.6906 56.3798 C 0.0 **** 0.0
29855 C33 83.9069 80.0932 56.0846 C 0.0 **** 0.0
29856 C34 84.5698 79.5903 57.3962 C 0.0 **** 0.0
29857 C35 83.5978 78.7467 58.2036 C 0.0 **** 0.0
29858 C36 79.9284 81.7323 56.7803 C 0.0 **** 0.0
29859 C37 80.5517 81.8527 55.5412 C 0.0 **** 0.0
29860 C38 81.8517 81.3667 55.3822 C 0.0 **** 0.0
29861 C39 76.5557 85.9463 60.2537 C 0.0 **** 0.0
29862 C40 77.7305 85.5958 59.4341 C 0.0 **** 0.0
29863 C41 78.3207 84.3838 59.8033 C 0.0 **** 0.0
29864 C42 79.6196 84.0411 59.2947 C 0.0 **** 0.0
29865 C43 80.1847 84.805 58.2526 C 0.0 **** 0.0
29866 C44 79.5857 86.0547 57.8766 C 0.0 **** 0.0
29867 C45 78.3696 86.4446 58.4742 C 0.0 **** 0.0
29868 C46 77.819 87.7099 58.1402 C 0.0 **** 0.0
29869 C47 78.5702 88.6116 57.3813 C 0.0 **** 0.0
29870 C48 79.8216 88.2431 56.8881 C 0.0 **** 0.0
29871 C49 80.2282 86.9218 56.9427 C 0.0 **** 0.0
29872 C50 81.3922 86.4667 56.2344 C 0.0 **** 0.0
29873 C51 81.9192 85.2219 56.5608 C 0.0 **** 0.0
29874 C52 81.3755 84.4432 57.5891 C 0.0 **** 0.0
29875 O53 71.8984 83.4193 69.1925 O 0.0 **** 0.0
29876 C54 72.9752 80.7962 69.3902 C 0.0 **** 0.0
29877 O55 74.7666 85.5469 62.6765 O 0.0 **** 0.0
29878 C56 77.9983 89.9901 57.139 C 0.0 **** 0.0
29879 C57 78.8855 91.0837 57.722 C 0.0 **** 0.0
29880 O58 79.9653 82.6071 54.4887 O 0.0 **** 0.0
29881 O59 82.1868 78.3202 60.5866 O 0.0 **** 0.0
29882 O60 82.0093 87.2595 55.2402 O 0.0 **** 0.0
29883 H61 72.3283 84.7055 66.9379 H 0.0 **** 0.0
29884 H62 74.2886 80.1778 67.0752 H 0.0 **** 0.0
29885 H63 74.6187 84.9718 65.2127 H 0.0 **** 0.0
29886 H64 73.2246 84.3663 64.2532 H 0.0 **** 0.0
29887 H65 76.4766 80.363 66.514 H 0.0 **** 0.0
29888 H66 75.7161 79.1339 65.4424 H 0.0 **** 0.0
29889 H67 78.581 80.1464 65.506 H 0.0 **** 0.0
29890 H68 78.0345 78.4365 65.9509 H 0.0 **** 0.0
29891 H69 78.9014 78.3912 63.5757 H 0.0 **** 0.0
29892 H70 77.0911 78.2857 63.5434 H 0.0 **** 0.0
29893 H71 77.7476 80.3553 59.0802 H 0.0 **** 0.0
29894 H72 79.0159 78.3662 60.9009 H 0.0 **** 0.0
29895 H73 83.7527 79.225 55.4373 H 0.0 **** 0.0
29896 H74 84.5067 80.785 55.4816 H 0.0 **** 0.0
29897 H75 85.4633 78.9872 57.1089 H 0.0 **** 0.0
29898 H76 84.8784 80.4786 57.9856 H 0.0 **** 0.0
29899 H77 83.2774 77.868 57.6324 H 0.0 **** 0.0
29900 H78 84.1025 78.4032 59.132 H 0.0 **** 0.0
29901 H79 78.882 82.0954 56.8008 H 0.0 **** 0.0
29902 H80 82.3547 81.5423 54.4434 H 0.0 **** 0.0
29903 H81 75.6312 85.8912 59.6167 H 0.0 **** 0.0
29904 H82 76.6289 86.9048 60.7814 H 0.0 **** 0.0
29905 H83 80.1979 83.2405 59.7787 H 0.0 **** 0.0
29906 H84 76.8068 88.0117 58.483 H 0.0 **** 0.0
29907 H85 80.3334 88.9768 56.2994 H 0.0 **** 0.0
29908 H86 82.8364 84.912 56.1087 H 0.0 **** 0.0
29909 H87 81.923 83.5771 57.8761 H 0.0 **** 0.0
29910 H88 71.4474 84.3167 69.0466 H 0.0 **** 0.0
29911 H89 73.435 81.3925 70.2167 H 0.0 **** 0.0
29912 H90 73.5113 79.8045 69.2987 H 0.0 **** 0.0
29913 H91 71.8681 80.5832 69.5223 H 0.0 **** 0.0
29914 H92 74.9406 86.4067 62.1713 H 0.0 **** 0.0
29915 H93 77.9308 90.0956 56.0537 H 0.0 **** 0.0
29916 H94 78.3736 92.1116 57.595 H 0.0 **** 0.0
29917 H95 79.8553 91.2418 57.216 H 0.0 **** 0.0
29918 H96 79.0638 90.9737 58.8357 H 0.0 **** 0.0
29919 H97 79.06 83.0462 54.649 H 0.0 **** 0.0
29920 H98 81.5183 77.8652 61.1736 H 0.0 **** 0.0
29921 H99 81.3929 87.8564 54.7053 H 0.0 **** 0.0
29922 H100 78.0894 82.145 58.7358 H 0.0 **** 0.0
29923 H101 80.2069 79.2458 61.9936 H 0.0 **** 0.0
29924 H102 76.9438 90.1568 57.5356 H 0.0 **** 0.0
29925 C1 41.7553 41.0158 11.4685 C 0.0 **** 0.0
29926 C2 40.8359 40.9364 12.5861 C 0.0 **** 0.0
29927 C3 40.8729 41.9293 13.576 C 0.0 **** 0.0
29928 C4 41.8001 42.9211 13.6489 C 0.0 **** 0.0
29929 C5 42.7292 43.0414 12.5438 C 0.0 **** 0.0
29930 C6 42.7003 42.1033 11.462 C 0.0 **** 0.0
29931 C7 41.5095 43.8382 14.7306 C 0.0 **** 0.0
29932 C8 40.3007 43.458 15.2362 C 0.0 **** 0.0
29933 C9 39.9188 42.1428 14.6392 C 0.0 **** 0.0
29934 C10 39.6913 44.1812 16.3018 C 0.0 **** 0.0
29935 C11 40.2409 45.4308 16.6513 C 0.0 **** 0.0
29936 C12 41.5105 45.8138 16.1171 C 0.0 **** 0.0
29937 C13 42.2045 44.9654 15.2114 C 0.0 **** 0.0
29938 C14 43.5518 45.3179 14.7066 C 0.0 **** 0.0
29939 C15 44.2639 46.303 15.6686 C 0.0 **** 0.0
29940 C16 43.421 47.5394 16.1274 C 0.0 **** 0.0
29941 C17 41.9999 47.1572 16.3991 C 0.0 **** 0.0
29942 C18 41.0505 48.127 16.8631 C 0.0 **** 0.0
29943 C19 39.751 47.7027 17.2947 C 0.0 **** 0.0
29944 C20 39.4434 46.3305 17.4138 C 0.0 **** 0.0
29945 C21 38.2062 45.8227 17.9967 C 0.0 **** 0.0
29946 C22 37.6594 44.6039 17.63 C 0.0 **** 0.0
29947 C23 38.4342 43.7427 16.8117 C 0.0 **** 0.0
29948 C24 38.6951 48.777 17.4053 C 0.0 **** 0.0
29949 C25 39.1629 49.8937 18.3038 C 0.0 **** 0.0
29950 C26 40.5325 50.1309 18.3596 C 0.0 **** 0.0
29951 C27 41.4112 49.5412 17.2245 C 0.0 **** 0.0
29952 C28 41.0604 50.8769 19.4532 C 0.0 **** 0.0
29953 C29 40.177 51.2348 20.5161 C 0.0 **** 0.0
29954 C30 38.7681 51.1102 20.3896 C 0.0 **** 0.0
29955 C31 38.2432 50.4831 19.2359 C 0.0 **** 0.0
29956 C32 37.8453 51.591 21.4768 C 0.0 **** 0.0
29957 C33 38.3749 52.0618 22.8275 C 0.0 **** 0.0
29958 C34 39.8213 51.6094 23.0456 C 0.0 **** 0.0
29959 C35 40.6895 51.9154 21.7935 C 0.0 **** 0.0
29960 C36 36.8754 50.4497 19.0471 C 0.0 **** 0.0
29961 C37 36.0462 50.8856 20.0827 C 0.0 **** 0.0
29962 C38 36.4985 51.4344 21.2811 C 0.0 **** 0.0
29963 C39 36.3522 44.3532 18.327 C 0.0 **** 0.0
29964 C40 36.2993 45.5201 19.287 C 0.0 **** 0.0
29965 C41 37.4764 46.2669 19.1102 C 0.0 **** 0.0
29966 C42 37.8588 47.2328 20.0438 C 0.0 **** 0.0
29967 C43 37.0842 47.4586 21.2036 C 0.0 **** 0.0
29968 C44 35.846 46.7093 21.3736 C 0.0 **** 0.0
29969 C45 35.4184 45.7532 20.4027 C 0.0 **** 0.0
29970 C46 34.1949 45.1008 20.5538 C 0.0 **** 0.0
29971 C47 33.3825 45.3289 21.6624 C 0.0 **** 0.0
29972 C48 33.8844 46.1869 22.6979 C 0.0 **** 0.0
29973 C49 35.1633 46.8009 22.5915 C 0.0 **** 0.0
29974 C50 35.7671 47.5056 23.6487 C 0.0 **** 0.0
29975 C51 36.8532 48.3957 23.4481 C 0.0 **** 0.0
29976 C52 37.5438 48.3173 22.213 C 0.0 **** 0.0
29977 O53 41.5866 40.2238 10.3075 O 0.0 **** 0.0
29978 C54 43.7686 42.1313 10.4112 C 0.0 **** 0.0
29979 O55 38.0536 42.4529 16.5161 O 0.0 **** 0.0
29980 C56 31.8955 44.9604 21.5548 C 0.0 **** 0.0
29981 C57 31.0034 46.0837 21.0869 C 0.0 **** 0.0
29982 O58 34.6958 50.6406 20.0803 O 0.0 **** 0.0
29983 O59 42.4289 51.1868 19.5672 O 0.0 **** 0.0
29984 O60 35.3679 47.2129 24.9472 O 0.0 **** 0.0
29985 H61 40.0441 40.2107 12.625 H 0.0 **** 0.0
29986 H62 43.3607 43.9127 12.4209 H 0.0 **** 0.0
29987 H63 40.0489 41.3933 15.4402 H 0.0 **** 0.0
29988 H64 38.9116 42.209 14.2407 H 0.0 **** 0.0
29989 H65 44.141 44.4147 14.6135 H 0.0 **** 0.0
29990 H66 43.4327 45.821 13.7565 H 0.0 **** 0.0
29991 H67 44.5392 45.6879 16.5503 H 0.0 **** 0.0
29992 H68 45.198 46.6468 15.165 H 0.0 **** 0.0
29993 H69 43.8689 47.9501 17.0916 H 0.0 **** 0.0
29994 H70 43.4284 48.3335 15.346 H 0.0 **** 0.0
29995 H71 38.5186 49.1926 16.4101 H 0.0 **** 0.0
29996 H72 41.2373 50.1362 16.3058 H 0.0 **** 0.0
29997 H73 38.2739 53.1504 22.9104 H 0.0 **** 0.0
29998 H74 37.7458 51.5699 23.6319 H 0.0 **** 0.0
29999 H75 40.2422 52.1532 23.9174 H 0.0 **** 0.0
30000 H76 39.8765 50.4779 23.2357 H 0.0 **** 0.0
30001 H77 40.7192 53.0034 21.664 H 0.0 **** 0.0
30002 H78 41.668 51.4378 22.1537 H 0.0 **** 0.0
30003 H79 36.4705 50.1644 18.087 H 0.0 **** 0.0
30004 H80 35.8006 51.6401 22.0681 H 0.0 **** 0.0
30005 H81 35.4902 44.2944 17.5962 H 0.0 **** 0.0
30006 H82 36.3478 43.4159 18.9249 H 0.0 **** 0.0
30007 H83 38.8231 47.7188 19.9313 H 0.0 **** 0.0
30008 H84 33.8747 44.4029 19.7179 H 0.0 **** 0.0
30009 H85 33.3434 46.3148 23.6037 H 0.0 **** 0.0
30010 H86 37.1875 49.1364 24.1841 H 0.0 **** 0.0
30011 H87 38.4622 48.8703 22.0757 H 0.0 **** 0.0
30012 H88 40.8335 39.5495 10.4195 H 0.0 **** 0.0
30013 H89 43.5463 41.3669 9.57498 H 0.0 **** 0.0
30014 H90 44.7547 41.8182 10.8199 H 0.0 **** 0.0
30015 H91 43.7342 43.1454 9.95029 H 0.0 **** 0.0
30016 H92 37.1266 42.2079 16.8459 H 0.0 **** 0.0
30017 H93 31.6804 44.0871 20.9448 H 0.0 **** 0.0
30018 H94 29.9254 45.7764 21.0384 H 0.0 **** 0.0
30019 H95 31.3135 46.4415 20.0651 H 0.0 **** 0.0
30020 H96 31.1447 46.9916 21.6585 H 0.0 **** 0.0
30021 H97 34.3998 50.34 19.1703 H 0.0 **** 0.0
30022 H98 43.0799 50.9333 18.8261 H 0.0 **** 0.0
30023 H99 35.8391 47.7418 25.6627 H 0.0 **** 0.0
30024 H100 37.7006 48.3542 17.739 H 0.0 **** 0.0
30025 H101 42.5244 49.6218 17.352 H 0.0 **** 0.0
30026 H102 31.5747 44.7846 22.5911 H 0.0 **** 0.0
30027 C1 101.326 28.8864 29.8033 C 0.0 **** 0.0
30028 C2 102.282 28.7924 28.7999 C 0.0 **** 0.0
30029 C3 102.601 29.8777 27.9937 C 0.0 **** 0.0
30030 C4 102.028 31.1032 28.2301 C 0.0 **** 0.0
30031 C5 101.024 31.2641 29.2367 C 0.0 **** 0.0
30032 C6 100.694 30.1202 30.0339 C 0.0 **** 0.0
30033 C7 102.442 32.0176 27.151 C 0.0 **** 0.0
30034 C8 103.233 31.3307 26.2509 C 0.0 **** 0.0
30035 C9 103.44 29.9223 26.7406 C 0.0 **** 0.0
30036 C10 103.606 31.8668 25.0064 C 0.0 **** 0.0
30037 C11 103.177 33.2183 24.6631 C 0.0 **** 0.0
30038 C12 102.449 33.9551 25.6504 C 0.0 **** 0.0
30039 C13 102.114 33.3711 26.9285 C 0.0 **** 0.0
30040 C14 101.416 34.1755 28.0168 C 0.0 **** 0.0
30041 C15 101.858 35.6423 27.92 C 0.0 **** 0.0
30042 C16 101.579 36.2237 26.5459 C 0.0 **** 0.0
30043 C17 102.027 35.3136 25.3851 C 0.0 **** 0.0
30044 C18 102.094 35.7919 24.0534 C 0.0 **** 0.0
30045 C19 102.658 34.9899 23.0244 C 0.0 **** 0.0
30046 C20 103.403 33.8047 23.3764 C 0.0 **** 0.0
30047 C21 104.222 33.1025 22.515 C 0.0 **** 0.0
30048 C22 104.625 31.7925 22.7838 C 0.0 **** 0.0
30049 C23 104.383 31.1733 24.0414 C 0.0 **** 0.0
30050 C24 102.17 35.2887 21.5871 C 0.0 **** 0.0
30051 C25 100.899 36.1884 21.5052 C 0.0 **** 0.0
30052 C26 100.422 36.8418 22.6641 C 0.0 **** 0.0
30053 C27 101.449 37.079 23.7308 C 0.0 **** 0.0
30054 C28 99.1768 37.5076 22.7054 C 0.0 **** 0.0
30055 C29 98.4976 37.7062 21.5016 C 0.0 **** 0.0
30056 C30 99.1498 37.3617 20.2806 C 0.0 **** 0.0
30057 C31 100.346 36.6465 20.2746 C 0.0 **** 0.0
30058 C32 98.5526 37.8019 19.0156 C 0.0 **** 0.0
30059 C33 97.2215 38.5215 19.0315 C 0.0 **** 0.0
30060 C34 96.3643 37.9675 20.2035 C 0.0 **** 0.0
30061 C35 97.0675 38.2466 21.5141 C 0.0 **** 0.0
30062 C36 101.059 36.5732 19.0975 C 0.0 **** 0.0
30063 C37 100.585 37.1585 17.9018 C 0.0 **** 0.0
30064 C38 99.3159 37.711 17.8673 C 0.0 **** 0.0
30065 C39 105.374 31.1818 21.6406 C 0.0 **** 0.0
30066 C40 105.375 32.3313 20.7066 C 0.0 **** 0.0
30067 C41 104.808 33.4444 21.3103 C 0.0 **** 0.0
30068 C42 105.108 34.7291 20.8374 C 0.0 **** 0.0
30069 C43 105.617 34.8034 19.5108 C 0.0 **** 0.0
30070 C44 106.139 33.6562 18.8402 C 0.0 **** 0.0
30071 C45 105.983 32.4035 19.4292 C 0.0 **** 0.0
30072 C46 106.386 31.252 18.7237 C 0.0 **** 0.0
30073 C47 107.112 31.3457 17.5269 C 0.0 **** 0.0
30074 C48 107.334 32.6316 17.0179 C 0.0 **** 0.0
30075 C49 106.749 33.797 17.5899 C 0.0 **** 0.0
30076 C50 106.811 35.0904 16.9879 C 0.0 **** 0.0
30077 C51 106.2 36.1745 17.6227 C 0.0 **** 0.0
30078 C52 105.69 36.0595 18.8961 C 0.0 **** 0.0
30079 O53 100.987 27.8326 30.6576 O 0.0 **** 0.0
30080 C54 99.7249 30.2712 31.1678 C 0.0 **** 0.0
30081 O55 104.756 29.8159 24.2672 O 0.0 **** 0.0
30082 C56 107.584 30.1147 16.8048 C 0.0 **** 0.0
30083 C57 108.804 29.487 17.5498 C 0.0 **** 0.0
30084 O58 101.363 37.1511 16.7509 O 0.0 **** 0.0
30085 O59 98.5183 37.8798 23.8896 O 0.0 **** 0.0
30086 O60 107.255 35.3469 15.6841 O 0.0 **** 0.0
30087 H61 102.769 27.8436 28.5726 H 0.0 **** 0.0
30088 H62 100.493 32.1714 29.3241 H 0.0 **** 0.0
30089 H63 102.996 29.2591 26.0301 H 0.0 **** 0.0
30090 H64 104.544 29.7818 26.9017 H 0.0 **** 0.0
30091 H65 100.31 34.035 27.9 H 0.0 **** 0.0
30092 H66 101.702 33.8162 29.0004 H 0.0 **** 0.0
30093 H67 101.362 36.2593 28.6948 H 0.0 **** 0.0
30094 H68 102.974 35.6561 28.0382 H 0.0 **** 0.0
30095 H69 100.472 36.4482 26.5033 H 0.0 **** 0.0
30096 H70 102.004 37.2482 26.5013 H 0.0 **** 0.0
30097 H71 102.906 35.8821 21.0763 H 0.0 **** 0.0
30098 H72 102.227 37.7577 23.3011 H 0.0 **** 0.0
30099 H73 97.4011 39.6292 19.2239 H 0.0 **** 0.0
30100 H74 96.6154 38.236 18.0876 H 0.0 **** 0.0
30101 H75 95.3826 38.567 20.1647 H 0.0 **** 0.0
30102 H76 96.1173 36.8778 20.1028 H 0.0 **** 0.0
30103 H77 97.0605 39.3295 21.7225 H 0.0 **** 0.0
30104 H78 96.475 37.7435 22.3047 H 0.0 **** 0.0
30105 H79 102.014 36.0661 19.0332 H 0.0 **** 0.0
30106 H80 98.8799 38.1069 16.9639 H 0.0 **** 0.0
30107 H81 106.398 30.9142 21.9331 H 0.0 **** 0.0
30108 H82 104.866 30.311 21.2289 H 0.0 **** 0.0
30109 H83 104.934 35.6192 21.3975 H 0.0 **** 0.0
30110 H84 106.149 30.2559 19.1544 H 0.0 **** 0.0
30111 H85 108.02 32.6984 16.159 H 0.0 **** 0.0
30112 H86 106.083 37.0943 17.1217 H 0.0 **** 0.0
30113 H87 105.236 36.9654 19.3627 H 0.0 **** 0.0
30114 H88 101.555 27.0366 30.4325 H 0.0 **** 0.0
30115 H89 98.773 29.7166 30.9826 H 0.0 **** 0.0
30116 H90 99.4757 31.3588 31.2932 H 0.0 **** 0.0
30117 H91 100.19 29.8533 32.107 H 0.0 **** 0.0
30118 H92 105.487 29.4754 23.707 H 0.0 **** 0.0
30119 H93 106.768 29.3298 16.7947 H 0.0 **** 0.0
30120 H94 109.571 30.2942 17.7192 H 0.0 **** 0.0
30121 H95 109.256 28.6667 16.9286 H 0.0 **** 0.0
30122 H96 108.463 28.9783 18.4577 H 0.0 **** 0.0
30123 H97 102.23 36.6416 16.8273 H 0.0 **** 0.0
30124 H98 99.0196 37.7183 24.7567 H 0.0 **** 0.0
30125 H99 107.493 34.4986 15.1771 H 0.0 **** 0.0
30126 H100 102.047 34.354 20.9946 H 0.0 **** 0.0
30127 H101 101.14 37.686 24.6331 H 0.0 **** 0.0
30128 H102 107.91 30.2544 15.7262 H 0.0 **** 0.0
30129 C1 92.407 101.216 24.0855 C 0.0 **** 0.0
30130 C2 92.1305 101.052 25.4708 C 0.0 **** 0.0
30131 C3 93.0426 100.43 26.2712 C 0.0 **** 0.0
30132 C4 94.252 99.9613 25.7826 C 0.0 **** 0.0
30133 C5 94.6144 100.246 24.472 C 0.0 **** 0.0
30134 C6 93.6639 100.813 23.6043 C 0.0 **** 0.0
30135 C7 94.9572 99.2151 26.8659 C 0.0 **** 0.0
30136 C8 94.1565 99.3144 28.0146 C 0.0 **** 0.0
30137 C9 92.8967 100.112 27.6959 C 0.0 **** 0.0
30138 C10 94.6577 98.904 29.255 C 0.0 **** 0.0
30139 C11 96.0151 98.4599 29.306 C 0.0 **** 0.0
30140 C12 96.8125 98.2878 28.1755 C 0.0 **** 0.0
30141 C13 96.2343 98.6203 26.9261 C 0.0 **** 0.0
30142 C14 97.0618 98.3518 25.647 C 0.0 **** 0.0
30143 C15 98.1772 97.3563 25.8943 C 0.0 **** 0.0
30144 C16 99.0865 97.8074 26.9916 C 0.0 **** 0.0
30145 C17 98.2913 97.9285 28.2954 C 0.0 **** 0.0
30146 C18 98.8998 97.954 29.5594 C 0.0 **** 0.0
30147 C19 98.0918 98.1746 30.6593 C 0.0 **** 0.0
30148 C20 96.6438 98.2281 30.5583 C 0.0 **** 0.0
30149 C21 95.8406 98.1231 31.6825 C 0.0 **** 0.0
30150 C22 94.4791 98.4898 31.6283 C 0.0 **** 0.0
30151 C23 93.885 98.9824 30.403 C 0.0 **** 0.0
30152 C24 98.7582 98.8624 31.8622 C 0.0 **** 0.0
30153 C25 100.107 98.2349 32.1829 C 0.0 **** 0.0
30154 C26 100.923 97.8127 31.1265 C 0.0 **** 0.0
30155 C27 100.395 97.8737 29.701 C 0.0 **** 0.0
30156 C28 102.179 97.2565 31.3704 C 0.0 **** 0.0
30157 C29 102.583 97.0235 32.6749 C 0.0 **** 0.0
30158 C30 101.876 97.5984 33.7248 C 0.0 **** 0.0
30159 C31 100.596 98.1315 33.5001 C 0.0 **** 0.0
30160 C32 102.442 97.4809 35.0973 C 0.0 **** 0.0
30161 C33 103.896 97.0603 35.353 C 0.0 **** 0.0
30162 C34 104.694 97.0674 34.0404 C 0.0 **** 0.0
30163 C35 103.925 96.3341 32.9592 C 0.0 **** 0.0
30164 C36 99.9052 98.6548 34.6354 C 0.0 **** 0.0
30165 C37 100.539 98.6281 35.9025 C 0.0 **** 0.0
30166 C38 101.762 98.0557 36.1346 C 0.0 **** 0.0
30167 C39 93.7673 98.2742 32.9386 C 0.0 **** 0.0
30168 C40 94.8772 97.5316 33.6705 C 0.0 **** 0.0
30169 C41 96.0356 97.4604 32.9236 C 0.0 **** 0.0
30170 C42 97.0978 96.6927 33.3685 C 0.0 **** 0.0
30171 C43 97.0565 96.0706 34.6053 C 0.0 **** 0.0
30172 C44 95.8864 96.1226 35.3968 C 0.0 **** 0.0
30173 C45 94.7733 96.887 34.9325 C 0.0 **** 0.0
30174 C46 93.6258 97.0653 35.7458 C 0.0 **** 0.0
30175 C47 93.5627 96.4062 36.9948 C 0.0 **** 0.0
30176 C48 94.6804 95.6557 37.4884 C 0.0 **** 0.0
30177 C49 95.8536 95.5624 36.7058 C 0.0 **** 0.0
30178 C50 97.0006 94.7915 37.1264 C 0.0 **** 0.0
30179 C51 98.1701 94.8007 36.3406 C 0.0 **** 0.0
30180 C52 98.2316 95.4014 35.0871 C 0.0 **** 0.0
30181 O53 91.4811 101.878 23.2162 O 0.0 **** 0.0
30182 C54 94.0282 101.062 22.1738 C 0.0 **** 0.0
30183 O55 92.5877 99.4683 30.3589 O 0.0 **** 0.0
30184 C56 92.3059 96.605 37.8374 C 0.0 **** 0.0
30185 C57 91.106 95.8044 37.3444 C 0.0 **** 0.0
30186 O58 99.9317 99.3259 36.9493 O 0.0 **** 0.0
30187 O59 102.996 96.8488 30.329 O 0.0 **** 0.0
30188 O60 97.044 94.1932 38.3804 O 0.0 **** 0.0
30189 H61 91.1531 101.372 25.8957 H 0.0 **** 0.0
30190 H62 95.6157 99.9381 24.0571 H 0.0 **** 0.0
30191 H63 91.9453 99.523 27.8373 H 0.0 **** 0.0
30192 H64 92.8629 101.058 28.2242 H 0.0 **** 0.0
30193 H65 96.4091 97.9868 24.8463 H 0.0 **** 0.0
30194 H66 97.4014 99.3068 25.1892 H 0.0 **** 0.0
30195 H67 97.6817 96.3955 26.1747 H 0.0 **** 0.0
30196 H68 98.7591 97.2361 24.9618 H 0.0 **** 0.0
30197 H69 99.9189 97.0931 27.1012 H 0.0 **** 0.0
30198 H70 99.4849 98.7495 26.7228 H 0.0 **** 0.0
30199 H71 98.9621 99.8622 31.559 H 0.0 **** 0.0
30200 H72 100.83 98.7631 29.1243 H 0.0 **** 0.0
30201 H73 104.356 97.7582 36.0262 H 0.0 **** 0.0
30202 H74 103.889 96.0409 35.8582 H 0.0 **** 0.0
30203 H75 104.901 98.1688 33.7518 H 0.0 **** 0.0
30204 H76 105.698 96.5613 34.2331 H 0.0 **** 0.0
30205 H77 104.59 96.3432 32.0673 H 0.0 **** 0.0
30206 H78 103.676 95.3152 33.2437 H 0.0 **** 0.0
30207 H79 98.9273 99.0809 34.5635 H 0.0 **** 0.0
30208 H80 102.26 98.2569 37.0411 H 0.0 **** 0.0
30209 H81 93.5309 99.2245 33.4384 H 0.0 **** 0.0
30210 H82 92.8892 97.6127 32.8028 H 0.0 **** 0.0
30211 H83 97.9967 96.4988 32.7581 H 0.0 **** 0.0
30212 H84 92.8533 97.6993 35.4324 H 0.0 **** 0.0
30213 H85 94.6803 95.3354 38.5182 H 0.0 **** 0.0
30214 H86 99.0878 94.2704 36.6245 H 0.0 **** 0.0
30215 H87 99.1148 95.2632 34.455 H 0.0 **** 0.0
30216 H88 90.6058 102.121 23.6725 H 0.0 **** 0.0
30217 H89 93.2128 100.633 21.5525 H 0.0 **** 0.0
30218 H90 95.0382 100.555 21.8505 H 0.0 **** 0.0
30219 H91 93.9696 102.165 22.0042 H 0.0 **** 0.0
30220 H92 92.1297 99.3966 31.2745 H 0.0 **** 0.0
30221 H93 92.5335 96.2718 38.8876 H 0.0 **** 0.0
30222 H94 90.6832 96.2746 36.4217 H 0.0 **** 0.0
30223 H95 90.3842 95.8714 38.1809 H 0.0 **** 0.0
30224 H96 91.3618 94.7175 37.1346 H 0.0 **** 0.0
30225 H97 99.0756 99.7911 36.687 H 0.0 **** 0.0
30226 H98 102.819 97.3466 29.4648 H 0.0 **** 0.0
30227 H99 97.9596 93.831 38.6197 H 0.0 **** 0.0
30228 H100 98.0711 99.0225 32.6763 H 0.0 **** 0.0
30229 H101 100.684 96.981 29.1824 H 0.0 **** 0.0
30230 H102 91.9942 97.6293 37.8652 H 0.0 **** 0.0
30231 C1 45.1078 53.6638 96.7616 C 0.0 **** 0.0
30232 C2 45.0809 54.5094 95.6353 C 0.0 **** 0.0
30233 C3 44.6977 55.8385 95.7918 C 0.0 **** 0.0
30234 C4 44.4138 56.3337 97.0492 C 0.0 **** 0.0
30235 C5 44.5577 55.5471 98.1902 C 0.0 **** 0.0
30236 C6 44.8953 54.1943 98.0647 C 0.0 **** 0.0
30237 C7 44.2863 57.7772 96.9161 C 0.0 **** 0.0
30238 C8 44.5197 58.1334 95.5873 C 0.0 **** 0.0
30239 C9 44.8362 56.9057 94.7833 C 0.0 **** 0.0
30240 C10 44.5427 59.4744 95.1801 C 0.0 **** 0.0
30241 C11 44.1247 60.4757 96.1234 C 0.0 **** 0.0
30242 C12 43.9586 60.1304 97.4766 C 0.0 **** 0.0
30243 C13 44.0242 58.7725 97.922 C 0.0 **** 0.0
30244 C14 43.7794 58.3813 99.3602 C 0.0 **** 0.0
30245 C15 43.0517 59.4445 100.158 C 0.0 **** 0.0
30246 C16 43.6283 60.8627 99.9237 C 0.0 **** 0.0
30247 C17 43.5465 61.2099 98.4516 C 0.0 **** 0.0
30248 C18 43.3954 62.5423 97.9699 C 0.0 **** 0.0
30249 C19 43.6705 62.8496 96.6223 C 0.0 **** 0.0
30250 C20 43.8829 61.8422 95.6696 C 0.0 **** 0.0
30251 C21 43.9844 62.0275 94.2657 C 0.0 **** 0.0
30252 C22 44.6513 61.1016 93.4373 C 0.0 **** 0.0
30253 C23 44.992 59.8441 93.893 C 0.0 **** 0.0
30254 C24 43.9437 64.32 96.2949 C 0.0 **** 0.0
30255 C25 42.7921 65.1562 96.7583 C 0.0 **** 0.0
30256 C26 42.2883 64.8043 98.068 C 0.0 **** 0.0
30257 C27 42.8529 63.6396 98.8434 C 0.0 **** 0.0
30258 C28 41.1175 65.4822 98.5237 C 0.0 **** 0.0
30259 C29 40.4308 66.3948 97.6986 C 0.0 **** 0.0
30260 C30 40.9845 66.7339 96.419 C 0.0 **** 0.0
30261 C31 42.1511 66.1472 95.9225 C 0.0 **** 0.0
30262 C32 40.242 67.6374 95.5537 C 0.0 **** 0.0
30263 C33 38.7997 67.9973 95.9055 C 0.0 **** 0.0
30264 C34 38.1874 66.978 96.8413 C 0.0 **** 0.0
30265 C35 39.052 66.8525 98.1004 C 0.0 **** 0.0
30266 C36 42.6554 66.552 94.6504 C 0.0 **** 0.0
30267 C37 41.9373 67.4813 93.862 C 0.0 **** 0.0
30268 C38 40.8077 68.1118 94.3633 C 0.0 **** 0.0
30269 C39 44.6816 61.553 92.0239 C 0.0 **** 0.0
30270 C40 43.6699 62.6675 92.08 C 0.0 **** 0.0
30271 C41 43.2764 62.8962 93.4078 C 0.0 **** 0.0
30272 C42 42.1264 63.6483 93.6996 C 0.0 **** 0.0
30273 C43 41.3769 64.2081 92.6239 C 0.0 **** 0.0
30274 C44 41.8177 64.0611 91.3178 C 0.0 **** 0.0
30275 C45 42.9168 63.2336 91.0423 C 0.0 **** 0.0
30276 C46 43.1829 62.8578 89.7397 C 0.0 **** 0.0
30277 C47 42.2983 63.1973 88.6742 C 0.0 **** 0.0
30278 C48 41.2892 64.0941 88.9295 C 0.0 **** 0.0
30279 C49 41.0756 64.6154 90.2501 C 0.0 **** 0.0
30280 C50 39.9604 65.4732 90.5578 C 0.0 **** 0.0
30281 C51 39.5129 65.5746 91.8614 C 0.0 **** 0.0
30282 C52 40.1936 64.9244 92.8881 C 0.0 **** 0.0
30283 O53 45.4228 52.3014 96.5923 O 0.0 **** 0.0
30284 C54 44.8584 53.2743 99.2951 C 0.0 **** 0.0
30285 O55 45.4721 58.8795 93.0015 O 0.0 **** 0.0
30286 C56 42.1677 62.4139 87.3694 C 0.0 **** 0.0
30287 C57 43.1751 61.271 87.2528 C 0.0 **** 0.0
30288 O58 42.2885 67.6815 92.5338 O 0.0 **** 0.0
30289 O59 40.6545 65.4161 99.8407 O 0.0 **** 0.0
30290 O60 39.1948 66.1406 89.5967 O 0.0 **** 0.0
30291 H61 45.3707 54.1824 94.6679 H 0.0 **** 0.0
30292 H62 44.4545 55.9147 99.1844 H 0.0 **** 0.0
30293 H63 44.0599 56.7894 94.01 H 0.0 **** 0.0
30294 H64 45.8712 56.9431 94.3853 H 0.0 **** 0.0
30295 H65 43.1548 57.5029 99.3432 H 0.0 **** 0.0
30296 H66 44.7666 58.1666 99.8265 H 0.0 **** 0.0
30297 H67 41.9565 59.4198 99.9043 H 0.0 **** 0.0
30298 H68 43.1096 59.2125 101.245 H 0.0 **** 0.0
30299 H69 43.0171 61.5783 100.509 H 0.0 **** 0.0
30300 H70 44.6829 60.8994 100.252 H 0.0 **** 0.0
30301 H71 44.8751 64.6142 96.8523 H 0.0 **** 0.0
30302 H72 43.5967 63.9641 99.5424 H 0.0 **** 0.0
30303 H73 38.8245 68.9375 96.3734 H 0.0 **** 0.0
30304 H74 38.1573 68.1392 95.0128 H 0.0 **** 0.0
30305 H75 37.1631 67.2956 97.1934 H 0.0 **** 0.0
30306 H76 38.1299 65.994 96.3276 H 0.0 **** 0.0
30307 H77 39.1644 67.8299 98.6493 H 0.0 **** 0.0
30308 H78 38.5016 66.0712 98.7181 H 0.0 **** 0.0
30309 H79 43.6117 66.2445 94.3384 H 0.0 **** 0.0
30310 H80 40.314 68.825 93.6873 H 0.0 **** 0.0
30311 H81 45.6677 61.9815 91.7413 H 0.0 **** 0.0
30312 H82 44.3596 60.8117 91.317 H 0.0 **** 0.0
30313 H83 41.8234 63.6904 94.68 H 0.0 **** 0.0
30314 H84 44.0046 62.2386 89.4873 H 0.0 **** 0.0
30315 H85 40.5873 64.3138 88.1209 H 0.0 **** 0.0
30316 H86 38.5502 66.1188 92.1162 H 0.0 **** 0.0
30317 H87 39.7633 65.1225 93.8625 H 0.0 **** 0.0
30318 H88 45.6686 52.0912 95.6249 H 0.0 **** 0.0
30319 H89 44.029 52.5945 99.2715 H 0.0 **** 0.0
30320 H90 44.7676 53.8674 100.219 H 0.0 **** 0.0
30321 H91 45.7707 52.662 99.3428 H 0.0 **** 0.0
30322 H92 45.8922 59.2567 92.1431 H 0.0 **** 0.0
30323 H93 41.1786 62.0261 87.2569 H 0.0 **** 0.0
30324 H94 43.125 60.8168 86.2428 H 0.0 **** 0.0
30325 H95 42.8538 60.4435 87.9451 H 0.0 **** 0.0
30326 H96 44.1736 61.6165 87.5637 H 0.0 **** 0.0
30327 H97 43.1087 67.1567 92.1961 H 0.0 **** 0.0
30328 H98 41.1166 64.814 100.532 H 0.0 **** 0.0
30329 H99 39.6417 66.1524 88.702 H 0.0 **** 0.0
30330 H100 44.2045 64.4668 95.2405 H 0.0 **** 0.0
30331 H101 42.0536 63.1611 99.4168 H 0.0 **** 0.0
30332 H102 42.2373 63.1731 86.5336 H 0.0 **** 0.0
30333 C1 52.1958 78.7992 62.2928 C 0.0 **** 0.0
30334 C2 52.7937 79.0303 61.0782 C 0.0 **** 0.0
30335 C3 53.2526 80.3078 60.8084 C 0.0 **** 0.0
30336 C4 53.1833 81.3452 61.7 C 0.0 **** 0.0
30337 C5 52.7413 81.0635 63.0472 C 0.0 **** 0.0
30338 C6 52.1679 79.8159 63.2828 C 0.0 **** 0.0
30339 C7 53.7206 82.5636 61.0757 C 0.0 **** 0.0
30340 C8 54.215 82.1962 59.8266 C 0.0 **** 0.0
30341 C9 53.9358 80.7477 59.5593 C 0.0 **** 0.0
30342 C10 54.8548 83.1254 58.9938 C 0.0 **** 0.0
30343 C11 54.938 84.4787 59.4778 C 0.0 **** 0.0
30344 C12 54.3889 84.8463 60.7155 C 0.0 **** 0.0
30345 C13 53.7428 83.8788 61.5168 C 0.0 **** 0.0
30346 C14 53.0467 84.2805 62.7826 C 0.0 **** 0.0
30347 C15 52.4595 85.6547 62.6666 C 0.0 **** 0.0
30348 C16 53.506 86.6971 62.3136 C 0.0 **** 0.0
30349 C17 54.3299 86.31 61.1106 C 0.0 **** 0.0
30350 C18 55.0644 87.2422 60.3743 C 0.0 **** 0.0
30351 C19 55.7463 86.8394 59.2314 C 0.0 **** 0.0
30352 C20 55.5422 85.5111 58.6452 C 0.0 **** 0.0
30353 C21 56.0125 85.1115 57.3212 C 0.0 **** 0.0
30354 C22 56.0339 83.771 56.9809 C 0.0 **** 0.0
30355 C23 55.4455 82.7898 57.7626 C 0.0 **** 0.0
30356 C24 57.122 87.5201 59.0711 C 0.0 **** 0.0
30357 C25 57.3786 88.8094 59.8429 C 0.0 **** 0.0
30358 C26 56.3127 89.4398 60.5209 C 0.0 **** 0.0
30359 C27 55.0226 88.7007 60.7336 C 0.0 **** 0.0
30360 C28 56.5374 90.6964 61.1637 C 0.0 **** 0.0
30361 C29 57.7189 91.3956 60.9697 C 0.0 **** 0.0
30362 C30 58.7864 90.7424 60.2675 C 0.0 **** 0.0
30363 C31 58.6291 89.464 59.7075 C 0.0 **** 0.0
30364 C32 60.1029 91.4309 60.1734 C 0.0 **** 0.0
30365 C33 60.3188 92.734 60.8867 C 0.0 **** 0.0
30366 C34 59.0555 93.5594 60.8823 C 0.0 **** 0.0
30367 C35 57.9348 92.7822 61.5728 C 0.0 **** 0.0
30368 C36 59.8225 88.8011 59.288 C 0.0 **** 0.0
30369 C37 61.078 89.3533 59.3292 C 0.0 **** 0.0
30370 C38 61.1883 90.6841 59.7207 C 0.0 **** 0.0
30371 C39 56.3909 83.6139 55.5394 C 0.0 **** 0.0
30372 C40 56.3754 84.9888 55.0713 C 0.0 **** 0.0
30373 C41 56.0891 85.8519 56.1326 C 0.0 **** 0.0
30374 C42 55.7815 87.1757 55.8577 C 0.0 **** 0.0
30375 C43 55.7049 87.5975 54.5128 C 0.0 **** 0.0
30376 C44 55.9974 86.6724 53.4552 C 0.0 **** 0.0
30377 C45 56.3834 85.3558 53.7373 C 0.0 **** 0.0
30378 C46 56.7784 84.4918 52.7181 C 0.0 **** 0.0
30379 C47 56.8027 84.9234 51.4008 C 0.0 **** 0.0
30380 C48 56.2236 86.1688 51.0885 C 0.0 **** 0.0
30381 C49 55.9121 87.0791 52.1191 C 0.0 **** 0.0
30382 C50 55.515 88.3976 51.8434 C 0.0 **** 0.0
30383 C51 55.4045 89.3191 52.8725 C 0.0 **** 0.0
30384 C52 55.3871 88.929 54.1704 C 0.0 **** 0.0
30385 O53 51.5838 77.5743 62.5523 O 0.0 **** 0.0
30386 C54 51.4245 79.6021 64.5592 C 0.0 **** 0.0
30387 O55 55.2554 81.4943 57.2843 O 0.0 **** 0.0
30388 C56 57.464 84.0787 50.3131 C 0.0 **** 0.0
30389 C57 56.4566 83.5963 49.2622 C 0.0 **** 0.0
30390 O58 62.2365 88.6161 59.1528 O 0.0 **** 0.0
30391 O59 55.5321 91.4107 61.8937 O 0.0 **** 0.0
30392 O60 55.0718 88.7883 50.59 O 0.0 **** 0.0
30393 H61 52.8657 78.2622 60.2953 H 0.0 **** 0.0
30394 H62 52.8009 81.7688 63.8602 H 0.0 **** 0.0
30395 H63 53.3049 80.5716 58.6563 H 0.0 **** 0.0
30396 H64 54.896 80.2459 59.4511 H 0.0 **** 0.0
30397 H65 52.2131 83.5961 63.0178 H 0.0 **** 0.0
30398 H66 53.8469 84.2779 63.5774 H 0.0 **** 0.0
30399 H67 51.6305 85.7233 61.9308 H 0.0 **** 0.0
30400 H68 51.9998 85.9306 63.6594 H 0.0 **** 0.0
30401 H69 52.9024 87.6555 62.1976 H 0.0 **** 0.0
30402 H70 54.1502 86.8275 63.1546 H 0.0 **** 0.0
30403 H71 57.8268 86.7976 59.4205 H 0.0 **** 0.0
30404 H72 54.8235 88.7794 61.8213 H 0.0 **** 0.0
30405 H73 60.6813 92.5309 61.9301 H 0.0 **** 0.0
30406 H74 61.0982 93.264 60.3251 H 0.0 **** 0.0
30407 H75 59.2016 94.514 61.4716 H 0.0 **** 0.0
30408 H76 58.7402 93.8206 59.8562 H 0.0 **** 0.0
30409 H77 58.0908 92.6883 62.6663 H 0.0 **** 0.0
30410 H78 56.984 93.36 61.4812 H 0.0 **** 0.0
30411 H79 59.7946 87.7892 58.9671 H 0.0 **** 0.0
30412 H80 62.187 91.1 59.7914 H 0.0 **** 0.0
30413 H81 57.4013 83.1407 55.4076 H 0.0 **** 0.0
30414 H82 55.5929 83.0518 54.9931 H 0.0 **** 0.0
30415 H83 55.4677 87.8591 56.668 H 0.0 **** 0.0
30416 H84 57.1985 83.5165 52.9581 H 0.0 **** 0.0
30417 H85 56.2503 86.4931 50.0565 H 0.0 **** 0.0
30418 H86 55.1359 90.3233 52.5711 H 0.0 **** 0.0
30419 H87 55.1617 89.6855 54.954 H 0.0 **** 0.0
30420 H88 51.7123 76.9492 61.7691 H 0.0 **** 0.0
30421 H89 50.4158 79.2964 64.2795 H 0.0 **** 0.0
30422 H90 51.4227 80.5114 65.1538 H 0.0 **** 0.0
30423 H91 51.8837 78.7268 65.1316 H 0.0 **** 0.0
30424 H92 55.7142 81.2405 56.4236 H 0.0 **** 0.0
30425 H93 58.2673 84.6523 49.7704 H 0.0 **** 0.0
30426 H94 56.9333 82.8634 48.5472 H 0.0 **** 0.0
30427 H95 56.1459 84.5007 48.6828 H 0.0 **** 0.0
30428 H96 55.5631 83.1152 49.7579 H 0.0 **** 0.0
30429 H97 62.0977 87.672 58.8536 H 0.0 **** 0.0
30430 H98 54.6 90.9582 61.9771 H 0.0 **** 0.0
30431 H99 54.7959 88.0098 49.9781 H 0.0 **** 0.0
30432 H100 57.4543 87.6693 58.0441 H 0.0 **** 0.0
30433 H101 54.1845 89.1179 60.1908 H 0.0 **** 0.0
30434 H102 57.9807 83.1894 50.6707 H 0.0 **** 0.0
30435 C1 61.22 35.6474 82.1321 C 0.0 **** 0.0
30436 C2 59.9159 35.1591 82.3451 C 0.0 **** 0.0
30437 C3 59.3867 34.1929 81.4544 C 0.0 **** 0.0
30438 C4 60.1066 33.7211 80.3768 C 0.0 **** 0.0
30439 C5 61.4467 34.1345 80.1847 C 0.0 **** 0.0
30440 C6 62.0358 35.0545 81.1171 C 0.0 **** 0.0
30441 C7 59.448 32.5439 79.867 C 0.0 **** 0.0
30442 C8 58.2343 32.3868 80.5856 C 0.0 **** 0.0
30443 C9 58.118 33.3865 81.6789 C 0.0 **** 0.0
30444 C10 57.48 31.1685 80.4769 C 0.0 **** 0.0
30445 C11 57.979 30.112 79.5873 C 0.0 **** 0.0
30446 C12 59.1721 30.3342 78.8725 C 0.0 **** 0.0
30447 C13 59.8791 31.5651 78.9635 C 0.0 **** 0.0
30448 C14 60.9813 31.7855 77.9409 C 0.0 **** 0.0
30449 C15 60.6468 31.0608 76.6291 C 0.0 **** 0.0
30450 C16 60.5786 29.5317 76.8402 C 0.0 **** 0.0
30451 C17 59.6684 29.2126 78.0172 C 0.0 **** 0.0
30452 C18 59.2685 27.8654 78.397 C 0.0 **** 0.0
30453 C19 58.0704 27.7122 79.1459 C 0.0 **** 0.0
30454 C20 57.3356 28.8797 79.5091 C 0.0 **** 0.0
30455 C21 55.998 28.8584 79.9205 C 0.0 **** 0.0
30456 C22 55.5497 29.8427 80.8274 C 0.0 **** 0.0
30457 C23 56.3143 30.9441 81.1936 C 0.0 **** 0.0
30458 C24 57.7285 26.3626 79.6519 C 0.0 **** 0.0
30459 C25 58.0241 25.2606 78.6349 C 0.0 **** 0.0
30460 C26 59.2013 25.4422 77.818 C 0.0 **** 0.0
30461 C27 60.0676 26.6621 77.9637 C 0.0 **** 0.0
30462 C28 59.5303 24.5039 76.837 C 0.0 **** 0.0
30463 C29 58.8018 23.342 76.7273 C 0.0 **** 0.0
30464 C30 57.6951 23.0907 77.5455 C 0.0 **** 0.0
30465 C31 57.2468 24.066 78.4781 C 0.0 **** 0.0
30466 C32 56.8393 21.8909 77.3524 C 0.0 **** 0.0
30467 C33 57.2312 20.867 76.2857 C 0.0 **** 0.0
30468 C34 57.9167 21.5799 75.0916 C 0.0 **** 0.0
30469 C35 59.1279 22.3981 75.5531 C 0.0 **** 0.0
30470 C36 56.0661 23.7832 79.239 C 0.0 **** 0.0
30471 C37 55.316 22.5724 79.056 C 0.0 **** 0.0
30472 C38 55.7538 21.6537 78.1241 C 0.0 **** 0.0
30473 C39 54.066 29.7546 80.9465 C 0.0 **** 0.0
30474 C40 53.751 28.6141 80.0714 C 0.0 **** 0.0
30475 C41 54.898 28.066 79.5283 C 0.0 **** 0.0
30476 C42 54.7596 27.0001 78.6251 C 0.0 **** 0.0
30477 C43 53.5011 26.3796 78.4727 C 0.0 **** 0.0
30478 C44 52.3404 26.8582 79.1525 C 0.0 **** 0.0
30479 C45 52.4484 28.0118 79.9378 C 0.0 **** 0.0
30480 C46 51.2807 28.6374 80.5161 C 0.0 **** 0.0
30481 C47 50.0309 28.0247 80.3788 C 0.0 **** 0.0
30482 C48 49.9542 26.8321 79.6599 C 0.0 **** 0.0
30483 C49 51.0747 26.2455 78.9643 C 0.0 **** 0.0
30484 C50 50.9754 25.1245 78.0725 C 0.0 **** 0.0
30485 C51 52.1067 24.5974 77.4195 C 0.0 **** 0.0
30486 C52 53.3888 25.2112 77.6502 C 0.0 **** 0.0
30487 O53 61.7139 36.5608 83.0931 O 0.0 **** 0.0
30488 C54 63.4723 35.2762 81.037 C 0.0 **** 0.0
30489 O55 55.8381 31.792 82.2479 O 0.0 **** 0.0
30490 C56 48.8278 28.6812 81.0375 C 0.0 **** 0.0
30491 C57 48.9108 28.9972 82.5638 C 0.0 **** 0.0
30492 O58 54.1294 22.2688 79.7725 O 0.0 **** 0.0
30493 O59 60.651 24.658 75.9659 O 0.0 **** 0.0
30494 O60 49.7928 24.486 77.7311 O 0.0 **** 0.0
30495 H61 59.2663 35.483 83.1518 H 0.0 **** 0.0
30496 H62 62.0854 33.6504 79.4492 H 0.0 **** 0.0
30497 H63 57.2539 34.0746 81.528 H 0.0 **** 0.0
30498 H64 58.1088 32.9155 82.6879 H 0.0 **** 0.0
30499 H65 61.0897 32.8827 77.643 H 0.0 **** 0.0
30500 H66 61.9538 31.4462 78.3862 H 0.0 **** 0.0
30501 H67 59.652 31.4505 76.2782 H 0.0 **** 0.0
30502 H68 61.4509 31.2682 75.8653 H 0.0 **** 0.0
30503 H69 60.1226 29.0718 75.9383 H 0.0 **** 0.0
30504 H70 61.609 29.2219 77.0096 H 0.0 **** 0.0
30505 H71 58.4013 26.2042 80.5342 H 0.0 **** 0.0
30506 H72 60.849 26.3965 78.7065 H 0.0 **** 0.0
30507 H73 57.9887 20.129 76.6658 H 0.0 **** 0.0
30508 H74 56.3824 20.2717 75.9415 H 0.0 **** 0.0
30509 H75 58.1883 20.8339 74.2783 H 0.0 **** 0.0
30510 H76 57.2184 22.2231 74.533 H 0.0 **** 0.0
30511 H77 59.9899 21.6992 75.753 H 0.0 **** 0.0
30512 H78 59.4605 22.9461 74.6847 H 0.0 **** 0.0
30513 H79 55.7623 24.4476 80.0098 H 0.0 **** 0.0
30514 H80 55.1427 20.8269 77.9417 H 0.0 **** 0.0
30515 H81 53.7391 29.5118 81.9848 H 0.0 **** 0.0
30516 H82 53.5662 30.7073 80.6067 H 0.0 **** 0.0
30517 H83 55.6227 26.67 78.0353 H 0.0 **** 0.0
30518 H84 51.3642 29.5381 81.1062 H 0.0 **** 0.0
30519 H85 49.0123 26.3729 79.6077 H 0.0 **** 0.0
30520 H86 52.0327 23.7971 76.7138 H 0.0 **** 0.0
30521 H87 54.2216 24.8417 77.0884 H 0.0 **** 0.0
30522 H88 62.7059 36.7055 83.0378 H 0.0 **** 0.0
30523 H89 63.8987 34.9989 82.015 H 0.0 **** 0.0
30524 H90 63.6184 36.3523 80.7076 H 0.0 **** 0.0
30525 H91 64.033 34.6699 80.2667 H 0.0 **** 0.0
30526 H92 54.8757 31.5802 82.5361 H 0.0 **** 0.0
30527 H93 48.5809 29.5934 80.4999 H 0.0 **** 0.0
30528 H94 47.8928 28.8129 83.0434 H 0.0 **** 0.0
30529 H95 49.1438 30.0652 82.7376 H 0.0 **** 0.0
30530 H96 49.6317 28.3621 83.1361 H 0.0 **** 0.0
30531 H97 53.6454 23.0924 80.0753 H 0.0 **** 0.0
30532 H98 61.5072 25.0176 76.3642 H 0.0 **** 0.0
30533 H99 49.0213 25.0472 77.9863 H 0.0 **** 0.0
30534 H100 56.7517 26.3131 80.1732 H 0.0 **** 0.0
30535 H101 60.5874 26.9035 77.0029 H 0.0 **** 0.0
30536 H102 47.9388 27.9854 80.9241 H 0.0 **** 0.0
30537 C1 51.6927 32.2494 99.8084 C 0.0 **** 0.0
30538 C2 50.438 31.999 99.2502 C 0.0 **** 0.0
30539 C3 49.4689 32.9714 99.2602 C 0.0 **** 0.0
30540 C4 49.7166 34.2152 99.8999 C 0.0 **** 0.0
30541 C5 50.9873 34.5493 100.382 C 0.0 **** 0.0
30542 C6 51.9413 33.5159 100.421 C 0.0 **** 0.0
30543 C7 48.5026 35.0517 99.7084 C 0.0 **** 0.0
30544 C8 47.5869 34.2888 98.9911 C 0.0 **** 0.0
30545 C9 48.1266 32.9027 98.7278 C 0.0 **** 0.0
30546 C10 46.2776 34.7695 98.6995 C 0.0 **** 0.0
30547 C11 45.9624 36.0854 99.0897 C 0.0 **** 0.0
30548 C12 46.8812 36.8112 99.9074 C 0.0 **** 0.0
30549 C13 48.1233 36.2523 100.317 C 0.0 **** 0.0
30550 C14 49.0673 36.9725 101.238 C 0.0 **** 0.0
30551 C15 48.3668 38.0405 102.065 C 0.0 **** 0.0
30552 C16 47.5497 38.9433 101.163 C 0.0 **** 0.0
30553 C17 46.5461 38.1792 100.286 C 0.0 **** 0.0
30554 C18 45.5691 38.8795 99.5935 C 0.0 **** 0.0
30555 C19 44.6135 38.1254 98.8428 C 0.0 **** 0.0
30556 C20 44.6819 36.6991 98.7895 C 0.0 **** 0.0
30557 C21 43.6882 35.8299 98.2621 C 0.0 **** 0.0
30558 C22 44.054 34.6306 97.6781 C 0.0 **** 0.0
30559 C23 45.3219 34.0458 97.9552 C 0.0 **** 0.0
30560 C24 43.6691 38.9671 97.992 C 0.0 **** 0.0
30561 C25 43.1004 40.1193 98.7854 C 0.0 **** 0.0
30562 C26 43.9987 40.8492 99.6212 C 0.0 **** 0.0
30563 C27 45.4118 40.4148 99.6426 C 0.0 **** 0.0
30564 C28 43.5313 41.9246 100.439 C 0.0 **** 0.0
30565 C29 42.1658 42.1015 100.564 C 0.0 **** 0.0
30566 C30 41.2462 41.3546 99.792 C 0.0 **** 0.0
30567 C31 41.7048 40.4566 98.7938 C 0.0 **** 0.0
30568 C32 39.7731 41.5836 99.8824 C 0.0 **** 0.0
30569 C33 39.2744 42.5367 100.895 C 0.0 **** 0.0
30570 C34 40.279 42.6586 102.028 C 0.0 **** 0.0
30571 C35 41.67 43.1193 101.546 C 0.0 **** 0.0
30572 C36 40.7791 40.028 97.8093 C 0.0 **** 0.0
30573 C37 39.4055 40.2968 97.9059 C 0.0 **** 0.0
30574 C38 38.8939 41.0301 98.9566 C 0.0 **** 0.0
30575 C39 42.8484 33.9921 96.9788 C 0.0 **** 0.0
30576 C40 41.7983 34.9515 97.4465 C 0.0 **** 0.0
30577 C41 42.3137 35.9599 98.2192 C 0.0 **** 0.0
30578 C42 41.4891 36.7751 98.9494 C 0.0 **** 0.0
30579 C43 40.0725 36.6597 98.7791 C 0.0 **** 0.0
30580 C44 39.5654 35.826 97.7669 C 0.0 **** 0.0
30581 C45 40.4419 34.8878 97.1489 C 0.0 **** 0.0
30582 C46 39.9534 34.004 96.1729 C 0.0 **** 0.0
30583 C47 38.6017 34.097 95.7557 C 0.0 **** 0.0
30584 C48 37.7232 34.9217 96.4523 C 0.0 **** 0.0
30585 C49 38.1746 35.7727 97.4774 C 0.0 **** 0.0
30586 C50 37.3066 36.6551 98.2093 C 0.0 **** 0.0
30587 C51 37.8726 37.541 99.1337 C 0.0 **** 0.0
30588 C52 39.2074 37.5178 99.4696 C 0.0 **** 0.0
30589 O53 52.6641 31.2718 99.7296 O 0.0 **** 0.0
30590 C54 53.2524 33.8218 101.027 C 0.0 **** 0.0
30591 O55 45.6188 32.6938 97.5319 O 0.0 **** 0.0
30592 C56 38.1243 33.3912 94.4887 C 0.0 **** 0.0
30593 C57 37.8947 34.3753 93.3459 C 0.0 **** 0.0
30594 O58 38.5128 39.871 96.9092 O 0.0 **** 0.0
30595 O59 44.3802 42.8563 101.082 O 0.0 **** 0.0
30596 O60 35.91 36.5808 98.1013 O 0.0 **** 0.0
30597 H61 50.2362 31.0376 98.8432 H 0.0 **** 0.0
30598 H62 51.2756 35.5219 100.738 H 0.0 **** 0.0
30599 H63 47.5326 32.1664 99.2743 H 0.0 **** 0.0
30600 H64 48.2432 32.7666 97.6333 H 0.0 **** 0.0
30601 H65 49.6278 36.3188 101.928 H 0.0 **** 0.0
30602 H66 49.8193 37.4479 100.583 H 0.0 **** 0.0
30603 H67 47.7726 37.5131 102.877 H 0.0 **** 0.0
30604 H68 49.1593 38.5951 102.566 H 0.0 **** 0.0
30605 H69 47.0217 39.6109 101.843 H 0.0 **** 0.0
30606 H70 48.3058 39.5467 100.586 H 0.0 **** 0.0
30607 H71 44.2331 39.4358 97.1487 H 0.0 **** 0.0
30608 H72 46.0112 40.7759 98.7575 H 0.0 **** 0.0
30609 H73 39.1458 43.4952 100.452 H 0.0 **** 0.0
30610 H74 38.351 42.1225 101.293 H 0.0 **** 0.0
30611 H75 39.8496 43.3934 102.698 H 0.0 **** 0.0
30612 H76 40.3753 41.6661 102.541 H 0.0 **** 0.0
30613 H77 41.6203 44.1115 101.023 H 0.0 **** 0.0
30614 H78 42.3438 43.1982 102.448 H 0.0 **** 0.0
30615 H79 41.1617 39.4566 96.9422 H 0.0 **** 0.0
30616 H80 37.8177 41.2113 98.9934 H 0.0 **** 0.0
30617 H81 42.8895 33.9613 95.8847 H 0.0 **** 0.0
30618 H82 42.5956 33.0618 97.4707 H 0.0 **** 0.0
30619 H83 41.9215 37.4725 99.6414 H 0.0 **** 0.0
30620 H84 40.5983 33.3797 95.6479 H 0.0 **** 0.0
30621 H85 36.6911 34.9597 96.1411 H 0.0 **** 0.0
30622 H86 37.2376 38.2103 99.6745 H 0.0 **** 0.0
30623 H87 39.662 38.1837 100.249 H 0.0 **** 0.0
30624 H88 52.4101 30.4951 99.1521 H 0.0 **** 0.0
30625 H89 53.2105 33.584 102.105 H 0.0 **** 0.0
30626 H90 53.5423 34.9013 100.878 H 0.0 **** 0.0
30627 H91 54.0203 33.1867 100.52 H 0.0 **** 0.0
30628 H92 45.1118 32.4394 96.7222 H 0.0 **** 0.0
30629 H93 38.929 32.65 94.2419 H 0.0 **** 0.0
30630 H94 37.7807 33.8126 92.4198 H 0.0 **** 0.0
30631 H95 38.7031 35.1191 93.1992 H 0.0 **** 0.0
30632 H96 36.9276 34.9141 93.5096 H 0.0 **** 0.0
30633 H97 38.9629 39.5506 96.0628 H 0.0 **** 0.0
30634 H98 45.3209 42.9873 100.642 H 0.0 **** 0.0
30635 H99 35.6318 35.6257 97.9929 H 0.0 **** 0.0
30636 H100 42.8718 38.4006 97.5142 H 0.0 **** 0.0
30637 H101 45.9462 40.8141 100.532 H 0.0 **** 0.0
30638 H102 37.1849 32.7815 94.6901 H 0.0 **** 0.0
30639 C1 37.5385 74.2431 39.1182 C 0.0 **** 0.0
30640 C2 36.5538 73.6287 39.8734 C 0.0 **** 0.0
30641 C3 35.37 74.3391 40.2364 C 0.0 **** 0.0
30642 C4 35.205 75.6368 39.8529 C 0.0 **** 0.0
30643 C5 36.1988 76.2803 39.139 C 0.0 **** 0.0
30644 C6 37.3729 75.6155 38.7743 C 0.0 **** 0.0
30645 C7 33.9084 76.0389 40.3175 C 0.0 **** 0.0
30646 C8 33.2878 74.96 40.9817 C 0.0 **** 0.0
30647 C9 34.2528 73.8348 41.0145 C 0.0 **** 0.0
30648 C10 31.9929 75.0017 41.4733 C 0.0 **** 0.0
30649 C11 31.2475 76.1741 41.2184 C 0.0 **** 0.0
30650 C12 31.9008 77.2846 40.5692 C 0.0 **** 0.0
30651 C13 33.2482 77.2751 40.2269 C 0.0 **** 0.0
30652 C14 33.9258 78.5301 39.7001 C 0.0 **** 0.0
30653 C15 33.1016 79.7603 40.0499 C 0.0 **** 0.0
30654 C16 31.6921 79.6103 39.5485 C 0.0 **** 0.0
30655 C17 31.065 78.3567 40.0069 C 0.0 **** 0.0
30656 C18 29.6695 78.1066 39.8914 C 0.0 **** 0.0
30657 C19 29.0633 77.0683 40.6284 C 0.0 **** 0.0
30658 C20 29.8594 76.221 41.4744 C 0.0 **** 0.0
30659 C21 29.3265 75.2315 42.3319 C 0.0 **** 0.0
30660 C22 30.0522 74.107 42.6281 C 0.0 **** 0.0
30661 C23 31.3589 73.9388 42.1596 C 0.0 **** 0.0
30662 C24 27.7133 76.5691 40.1068 C 0.0 **** 0.0
30663 C25 27.7266 76.5023 38.5941 C 0.0 **** 0.0
30664 C26 28.405 77.5237 37.8857 C 0.0 **** 0.0
30665 C27 28.8659 78.713 38.7321 C 0.0 **** 0.0
30666 C28 28.7276 77.3365 36.5015 C 0.0 **** 0.0
30667 C29 28.2635 76.2541 35.8387 C 0.0 **** 0.0
30668 C30 27.3306 75.3871 36.4834 C 0.0 **** 0.0
30669 C31 27.1335 75.4061 37.8682 C 0.0 **** 0.0
30670 C32 26.5834 74.3794 35.6588 C 0.0 **** 0.0
30671 C33 26.9846 74.0832 34.2541 C 0.0 **** 0.0
30672 C34 27.5943 75.3371 33.593 C 0.0 **** 0.0
30673 C35 28.7544 75.8487 34.4563 C 0.0 **** 0.0
30674 C36 26.2041 74.5141 38.4363 C 0.0 **** 0.0
30675 C37 25.4692 73.5682 37.6466 C 0.0 **** 0.0
30676 C38 25.6885 73.4592 36.295 C 0.0 **** 0.0
30677 C39 29.2529 73.0901 43.4133 C 0.0 **** 0.0
30678 C40 28.0083 73.9324 43.6243 C 0.0 **** 0.0
30679 C41 28.1265 75.1564 42.9965 C 0.0 **** 0.0
30680 C42 27.1028 76.1045 43.0821 C 0.0 **** 0.0
30681 C43 25.8538 75.7479 43.631 C 0.0 **** 0.0
30682 C44 25.6759 74.4332 44.1577 C 0.0 **** 0.0
30683 C45 26.7706 73.5371 44.169 C 0.0 **** 0.0
30684 C46 26.6101 72.2627 44.7336 C 0.0 **** 0.0
30685 C47 25.337 71.79 45.053 C 0.0 **** 0.0
30686 C48 24.2386 72.6249 44.9687 C 0.0 **** 0.0
30687 C49 24.4065 73.9817 44.5733 C 0.0 **** 0.0
30688 C50 23.3239 74.885 44.5095 C 0.0 **** 0.0
30689 C51 23.556 76.2313 44.0693 C 0.0 **** 0.0
30690 C52 24.7801 76.6096 43.6017 C 0.0 **** 0.0
30691 O53 38.6418 73.4585 38.6553 O 0.0 **** 0.0
30692 C54 38.2835 76.327 37.7814 C 0.0 **** 0.0
30693 O55 32.0317 72.7261 42.3273 O 0.0 **** 0.0
30694 C56 25.2209 70.4564 45.6862 C 0.0 **** 0.0
30695 C57 25.7714 69.2909 44.8108 C 0.0 **** 0.0
30696 O58 24.632 72.6433 38.2165 O 0.0 **** 0.0
30697 O59 29.4781 78.2801 35.8048 O 0.0 **** 0.0
30698 O60 22.0428 74.6025 44.9437 O 0.0 **** 0.0
30699 H61 36.6473 72.5906 40.1649 H 0.0 **** 0.0
30700 H62 36.0007 77.2347 38.7345 H 0.0 **** 0.0
30701 H63 34.5857 73.7631 42.076 H 0.0 **** 0.0
30702 H64 33.8777 72.8391 40.5789 H 0.0 **** 0.0
30703 H65 34.8741 78.6034 40.259 H 0.0 **** 0.0
30704 H66 34.1562 78.5092 38.6195 H 0.0 **** 0.0
30705 H67 33.1078 79.8843 41.1856 H 0.0 **** 0.0
30706 H68 33.6145 80.6045 39.5211 H 0.0 **** 0.0
30707 H69 31.0736 80.4173 40.013 H 0.0 **** 0.0
30708 H70 31.6669 79.6516 38.4329 H 0.0 **** 0.0
30709 H71 27.4671 75.5892 40.4977 H 0.0 **** 0.0
30710 H72 29.3458 79.5325 38.1891 H 0.0 **** 0.0
30711 H73 27.7801 73.3053 34.2581 H 0.0 **** 0.0
30712 H74 26.0571 73.8132 33.6501 H 0.0 **** 0.0
30713 H75 27.8884 75.0651 32.5495 H 0.0 **** 0.0
30714 H76 26.8034 76.0794 33.5133 H 0.0 **** 0.0
30715 H77 29.643 75.1522 34.4993 H 0.0 **** 0.0
30716 H78 29.065 76.7309 33.8785 H 0.0 **** 0.0
30717 H79 25.9092 74.6087 39.4886 H 0.0 **** 0.0
30718 H80 25.2104 72.6567 35.7464 H 0.0 **** 0.0
30719 H81 28.9935 72.1938 42.8387 H 0.0 **** 0.0
30720 H82 29.8111 72.961 44.3898 H 0.0 **** 0.0
30721 H83 27.1987 77.0663 42.6855 H 0.0 **** 0.0
30722 H84 27.4782 71.6841 44.9552 H 0.0 **** 0.0
30723 H85 23.2765 72.2263 45.1655 H 0.0 **** 0.0
30724 H86 22.784 76.9496 44.1015 H 0.0 **** 0.0
30725 H87 24.9523 77.6486 43.2578 H 0.0 **** 0.0
30726 H88 38.6062 72.4797 38.9693 H 0.0 **** 0.0
30727 H89 39.2278 75.7961 37.6417 H 0.0 **** 0.0
30728 H90 38.617 77.3224 38.1741 H 0.0 **** 0.0
30729 H91 37.8553 76.4333 36.7445 H 0.0 **** 0.0
30730 H92 31.6246 72.1341 43.1023 H 0.0 **** 0.0
30731 H93 25.8081 70.4417 46.6574 H 0.0 **** 0.0
30732 H94 25.6903 68.3415 45.4085 H 0.0 **** 0.0
30733 H95 26.8014 69.4954 44.5268 H 0.0 **** 0.0
30734 H96 25.1557 69.1869 43.8761 H 0.0 **** 0.0
30735 H97 24.573 72.6856 39.2114 H 0.0 **** 0.0
30736 H98 30.0699 78.8379 36.3866 H 0.0 **** 0.0
30737 H99 21.9285 73.9309 45.6407 H 0.0 **** 0.0
30738 H100 26.9391 77.2843 40.4311 H 0.0 **** 0.0
30739 H101 27.9458 79.1823 39.1756 H 0.0 **** 0.0
30740 H102 24.1669 70.2644 45.9337 H 0.0 **** 0.0
30741 C1 98.8884 47.4828 99.3178 C 0.0 **** 0.0
30742 C2 98.0092 48.204 100.174 C 0.0 **** 0.0
30743 C3 96.6487 48.0102 100.011 C 0.0 **** 0.0
30744 C4 96.1528 47.1438 99.0656 C 0.0 **** 0.0
30745 C5 97.0032 46.2783 98.3873 C 0.0 **** 0.0
30746 C6 98.4051 46.4345 98.5131 C 0.0 **** 0.0
30747 C7 94.6781 47.2224 99.0429 C 0.0 **** 0.0
30748 C8 94.3245 48.0153 100.121 C 0.0 **** 0.0
30749 C9 95.5603 48.6628 100.75 C 0.0 **** 0.0
30750 C10 92.9818 48.0679 100.526 C 0.0 **** 0.0
30751 C11 91.9759 47.4728 99.7592 C 0.0 **** 0.0
30752 C12 92.32 46.783 98.5522 C 0.0 **** 0.0
30753 C13 93.6944 46.6553 98.1912 C 0.0 **** 0.0
30754 C14 94.0783 45.8343 96.9806 C 0.0 **** 0.0
30755 C15 93.0458 45.9759 95.8944 C 0.0 **** 0.0
30756 C16 91.651 45.5418 96.4198 C 0.0 **** 0.0
30757 C17 91.2955 46.1411 97.7498 C 0.0 **** 0.0
30758 C18 90.0252 45.8847 98.3813 C 0.0 **** 0.0
30759 C19 89.7077 46.3949 99.6537 C 0.0 **** 0.0
30760 C20 90.5913 47.4037 100.224 C 0.0 **** 0.0
30761 C21 90.2735 48.2555 101.344 C 0.0 **** 0.0
30762 C22 91.2871 48.7722 102.107 C 0.0 **** 0.0
30763 C23 92.6417 48.6365 101.753 C 0.0 **** 0.0
30764 C24 88.4674 45.8112 100.346 C 0.0 **** 0.0
30765 C25 88.3356 44.2928 100.04 C 0.0 **** 0.0
30766 C26 88.6175 43.8494 98.7415 C 0.0 **** 0.0
30767 C27 89.0078 44.9189 97.7443 C 0.0 **** 0.0
30768 C28 88.5513 42.4938 98.4162 C 0.0 **** 0.0
30769 C29 87.9912 41.5782 99.3347 C 0.0 **** 0.0
30770 C30 87.7082 41.9869 100.66 C 0.0 **** 0.0
30771 C31 87.8673 43.3541 101.04 C 0.0 **** 0.0
30772 C32 87.1855 41.0063 101.688 C 0.0 **** 0.0
30773 C33 86.8504 39.5908 101.295 C 0.0 **** 0.0
30774 C34 86.5428 39.5668 99.7798 C 0.0 **** 0.0
30775 C35 87.694 40.1325 98.9368 C 0.0 **** 0.0
30776 C36 87.5338 43.6861 102.364 C 0.0 **** 0.0
30777 C37 87.1756 42.7354 103.359 C 0.0 **** 0.0
30778 C38 86.9723 41.3995 103.003 C 0.0 **** 0.0
30779 C39 90.7661 49.4693 103.351 C 0.0 **** 0.0
30780 C40 89.3046 49.3021 103.166 C 0.0 **** 0.0
30781 C41 89.0205 48.612 101.981 C 0.0 **** 0.0
30782 C42 87.7222 48.5959 101.481 C 0.0 **** 0.0
30783 C43 86.6863 49.1791 102.242 C 0.0 **** 0.0
30784 C44 86.9905 49.7815 103.513 C 0.0 **** 0.0
30785 C45 88.3242 49.7527 104.014 C 0.0 **** 0.0
30786 C46 88.5978 50.1838 105.297 C 0.0 **** 0.0
30787 C47 87.5629 50.5299 106.179 C 0.0 **** 0.0
30788 C48 86.2203 50.5402 105.685 C 0.0 **** 0.0
30789 C49 85.9346 50.2254 104.346 C 0.0 **** 0.0
30790 C50 84.6119 50.2119 103.824 C 0.0 **** 0.0
30791 C51 84.3376 49.6547 102.537 C 0.0 **** 0.0
30792 C52 85.3973 49.1728 101.767 C 0.0 **** 0.0
30793 O53 100.246 47.7236 99.3825 O 0.0 **** 0.0
30794 C54 99.3761 45.6105 97.7109 C 0.0 **** 0.0
30795 O55 93.6668 49.004 102.665 O 0.0 **** 0.0
30796 C56 87.9475 50.8983 107.589 C 0.0 **** 0.0
30797 C57 88.0456 49.6714 108.444 C 0.0 **** 0.0
30798 O58 86.8934 43.1113 104.677 O 0.0 **** 0.0
30799 O59 89.084 42.1264 97.1866 O 0.0 **** 0.0
30800 O60 83.4944 50.7413 104.532 O 0.0 **** 0.0
30801 H61 98.3335 49.0044 100.849 H 0.0 **** 0.0
30802 H62 96.6449 45.5152 97.7667 H 0.0 **** 0.0
30803 H63 95.6126 49.7717 100.659 H 0.0 **** 0.0
30804 H64 95.733 48.4196 101.844 H 0.0 **** 0.0
30805 H65 95.0235 46.2966 96.6044 H 0.0 **** 0.0
30806 H66 94.1643 44.7388 97.3091 H 0.0 **** 0.0
30807 H67 92.9858 46.984 95.448 H 0.0 **** 0.0
30808 H68 93.336 45.3686 95.0275 H 0.0 **** 0.0
30809 H69 90.9365 45.8823 95.6921 H 0.0 **** 0.0
30810 H70 91.5468 44.4133 96.4635 H 0.0 **** 0.0
30811 H71 88.4822 46.0196 101.43 H 0.0 **** 0.0
30812 H72 89.3509 44.4336 96.818 H 0.0 **** 0.0
30813 H73 87.729 38.976 101.475 H 0.0 **** 0.0
30814 H74 86.0369 39.23 101.938 H 0.0 **** 0.0
30815 H75 86.3789 38.5154 99.4026 H 0.0 **** 0.0
30816 H76 85.5605 40.0953 99.5937 H 0.0 **** 0.0
30817 H77 88.6317 39.5702 99.0265 H 0.0 **** 0.0
30818 H78 87.3014 40.0915 97.9007 H 0.0 **** 0.0
30819 H79 87.5823 44.6392 102.822 H 0.0 **** 0.0
30820 H80 86.6783 40.6558 103.715 H 0.0 **** 0.0
30821 H81 91.08 48.9746 104.272 H 0.0 **** 0.0
30822 H82 91.0588 50.5236 103.327 H 0.0 **** 0.0
30823 H83 87.5242 48.4274 100.423 H 0.0 **** 0.0
30824 H84 89.6315 50.2075 105.683 H 0.0 **** 0.0
30825 H85 85.4482 50.8147 106.421 H 0.0 **** 0.0
30826 H86 83.3233 49.5969 102.158 H 0.0 **** 0.0
30827 H87 85.2007 48.6986 100.81 H 0.0 **** 0.0
30828 H88 100.51 48.4473 100.015 H 0.0 **** 0.0
30829 H89 100.034 45.1008 98.4738 H 0.0 **** 0.0
30830 H90 99.9779 46.2185 97.0242 H 0.0 **** 0.0
30831 H91 98.8579 44.824 97.1544 H 0.0 **** 0.0
30832 H92 93.3408 49.3004 103.578 H 0.0 **** 0.0
30833 H93 88.9027 51.449 107.553 H 0.0 **** 0.0
30834 H94 88.3075 49.9165 109.506 H 0.0 **** 0.0
30835 H95 88.9211 49.0103 108.22 H 0.0 **** 0.0
30836 H96 87.108 49.046 108.39 H 0.0 **** 0.0
30837 H97 86.9009 44.0954 104.82 H 0.0 **** 0.0
30838 H98 88.9475 41.1409 96.9627 H 0.0 **** 0.0
30839 H99 83.6142 51.135 105.475 H 0.0 **** 0.0
30840 H100 87.5824 46.2983 99.9472 H 0.0 **** 0.0
30841 H101 88.1275 45.5591 97.4773 H 0.0 **** 0.0
30842 H102 87.2065 51.5216 108.044 H 0.0 **** 0.0
30843 C1 76.9967 68.2672 60.6057 C 0.0 **** 0.0
30844 C2 76.4574 69.4919 60.1153 C 0.0 **** 0.0
30845 C3 77.2638 70.2876 59.3064 C 0.0 **** 0.0
30846 C4 78.5227 69.8921 58.9028 C 0.0 **** 0.0
30847 C5 79.0647 68.6587 59.3293 C 0.0 **** 0.0
30848 C6 78.3214 67.8426 60.1667 C 0.0 **** 0.0
30849 C7 79.0849 70.9797 58.0292 C 0.0 **** 0.0
30850 C8 78.1068 71.9543 57.8535 C 0.0 **** 0.0
30851 C9 76.8843 71.6112 58.6877 C 0.0 **** 0.0
30852 C10 78.3655 73.1458 57.1411 C 0.0 **** 0.0
30853 C11 79.628 73.2982 56.5161 C 0.0 **** 0.0
30854 C12 80.6192 72.2724 56.6648 C 0.0 **** 0.0
30855 C13 80.3295 71.1705 57.5048 C 0.0 **** 0.0
30856 C14 81.4073 70.1545 57.7399 C 0.0 **** 0.0
30857 C15 82.8316 70.599 57.4921 C 0.0 **** 0.0
30858 C16 83.0163 71.347 56.1855 C 0.0 **** 0.0
30859 C17 81.9374 72.3908 55.9432 C 0.0 **** 0.0
30860 C18 82.0174 73.3257 54.8662 C 0.0 **** 0.0
30861 C19 80.9786 74.2548 54.7109 C 0.0 **** 0.0
30862 C20 79.9394 74.4038 55.6748 C 0.0 **** 0.0
30863 C21 78.9756 75.4389 55.6791 C 0.0 **** 0.0
30864 C22 77.6708 75.2043 56.0729 C 0.0 **** 0.0
30865 C23 77.3592 74.0886 56.8912 C 0.0 **** 0.0
30866 C24 80.9478 74.9702 53.3574 C 0.0 **** 0.0
30867 C25 81.3912 74.0633 52.2074 C 0.0 **** 0.0
30868 C26 82.5179 73.2485 52.3981 C 0.0 **** 0.0
30869 C27 83.1195 73.2705 53.8029 C 0.0 **** 0.0
30870 C28 83.1087 72.4905 51.3518 C 0.0 **** 0.0
30871 C29 82.4483 72.5318 50.0999 C 0.0 **** 0.0
30872 C30 81.2829 73.2324 49.9021 C 0.0 **** 0.0
30873 C31 80.8311 74.1606 50.9228 C 0.0 **** 0.0
30874 C32 80.6951 73.3253 48.5108 C 0.0 **** 0.0
30875 C33 81.0976 72.2769 47.4851 C 0.0 **** 0.0
30876 C34 82.5922 72.1228 47.549 C 0.0 **** 0.0
30877 C35 83.0767 71.7785 48.9414 C 0.0 **** 0.0
30878 C36 79.8656 75.1651 50.5174 C 0.0 **** 0.0
30879 C37 79.3932 75.2571 49.2365 C 0.0 **** 0.0
30880 C38 79.8485 74.369 48.2157 C 0.0 **** 0.0
30881 C39 76.7681 76.3435 55.69 C 0.0 **** 0.0
30882 C40 77.7778 77.3605 55.2213 C 0.0 **** 0.0
30883 C41 79.0259 76.7836 55.2363 C 0.0 **** 0.0
30884 C42 80.1202 77.5169 54.7535 C 0.0 **** 0.0
30885 C43 79.8962 78.6873 53.9614 C 0.0 **** 0.0
30886 C44 78.559 79.192 53.8437 C 0.0 **** 0.0
30887 C45 77.5005 78.5286 54.5026 C 0.0 **** 0.0
30888 C46 76.2013 79.0779 54.3934 C 0.0 **** 0.0
30889 C47 75.9782 80.2982 53.7081 C 0.0 **** 0.0
30890 C48 77.0365 80.9054 53.034 C 0.0 **** 0.0
30891 C49 78.285 80.2381 52.9576 C 0.0 **** 0.0
30892 C50 79.3689 80.674 52.0883 C 0.0 **** 0.0
30893 C51 80.6526 80.0927 52.1611 C 0.0 **** 0.0
30894 C52 80.9188 79.2062 53.1824 C 0.0 **** 0.0
30895 O53 76.2978 67.5389 61.5674 O 0.0 **** 0.0
30896 C54 78.936 66.5928 60.6767 C 0.0 **** 0.0
30897 O55 76.0371 73.8758 57.3222 O 0.0 **** 0.0
30898 C56 74.5902 80.928 53.6897 C 0.0 **** 0.0
30899 C57 73.714 80.2232 52.6234 C 0.0 **** 0.0
30900 O58 78.4408 76.2499 48.869 O 0.0 **** 0.0
30901 O59 84.3764 71.9284 51.4501 O 0.0 **** 0.0
30902 O60 79.1847 81.5451 50.9956 O 0.0 **** 0.0
30903 H61 75.4835 69.881 60.4397 H 0.0 **** 0.0
30904 H62 80.0028 68.2868 59.0105 H 0.0 **** 0.0
30905 H63 76.7488 72.3376 59.4711 H 0.0 **** 0.0
30906 H64 75.9844 71.454 58.0565 H 0.0 **** 0.0
30907 H65 81.461 69.9292 58.8137 H 0.0 **** 0.0
30908 H66 81.1972 69.1961 57.1786 H 0.0 **** 0.0
30909 H67 83.1403 71.2757 58.3122 H 0.0 **** 0.0
30910 H68 83.4872 69.7573 57.5701 H 0.0 **** 0.0
30911 H69 84.0395 71.7173 56.1727 H 0.0 **** 0.0
30912 H70 82.9213 70.5744 55.4139 H 0.0 **** 0.0
30913 H71 79.9214 75.3756 53.2138 H 0.0 **** 0.0
30914 H72 83.7714 72.4147 53.9605 H 0.0 **** 0.0
30915 H73 80.5419 71.3027 47.6389 H 0.0 **** 0.0
30916 H74 80.8033 72.6031 46.4838 H 0.0 **** 0.0
30917 H75 82.8061 71.2677 46.8693 H 0.0 **** 0.0
30918 H76 83.089 73.1148 47.2062 H 0.0 **** 0.0
30919 H77 82.9042 70.711 49.0776 H 0.0 **** 0.0
30920 H78 84.1579 71.9721 49.0104 H 0.0 **** 0.0
30921 H79 79.6055 75.9825 51.1629 H 0.0 **** 0.0
30922 H80 79.4344 74.457 47.2392 H 0.0 **** 0.0
30923 H81 76.1536 76.0722 54.8162 H 0.0 **** 0.0
30924 H82 76.2364 76.6534 56.6082 H 0.0 **** 0.0
30925 H83 81.0881 77.1754 55.0117 H 0.0 **** 0.0
30926 H84 75.4057 78.561 54.8096 H 0.0 **** 0.0
30927 H85 76.9043 81.8012 52.4565 H 0.0 **** 0.0
30928 H86 81.4431 80.3494 51.4413 H 0.0 **** 0.0
30929 H87 81.996 78.7967 53.2955 H 0.0 **** 0.0
30930 H88 75.3871 67.9285 61.7976 H 0.0 **** 0.0
30931 H89 79.8985 66.3799 60.1459 H 0.0 **** 0.0
30932 H90 78.2692 65.7307 60.5151 H 0.0 **** 0.0
30933 H91 79.1906 66.6747 61.757 H 0.0 **** 0.0
30934 H92 75.3884 74.5997 57.0764 H 0.0 **** 0.0
30935 H93 74.0846 80.7947 54.6388 H 0.0 **** 0.0
30936 H94 72.9477 80.9564 52.203 H 0.0 **** 0.0
30937 H95 73.1263 79.3704 53.0509 H 0.0 **** 0.0
30938 H96 74.2945 79.9024 51.7161 H 0.0 **** 0.0
30939 H97 77.9521 76.5797 49.6662 H 0.0 **** 0.0
30940 H98 84.9728 72.0858 52.2253 H 0.0 **** 0.0
30941 H99 78.2205 81.8576 50.8746 H 0.0 **** 0.0
30942 H100 81.6484 75.8186 53.418 H 0.0 **** 0.0
30943 H101 83.731 74.2344 53.8703 H 0.0 **** 0.0
30944 H102 74.6668 81.9984 53.3478 H 0.0 **** 0.0
30945 C1 16.7163 10.1671 61.3004 C 0.0 **** 0.0
30946 C2 17.7163 10.6621 60.3964 C 0.0 **** 0.0
30947 C3 18.5547 9.69648 59.816 C 0.0 **** 0.0
30948 C4 18.5311 8.35561 60.1502 C 0.0 **** 0.0
30949 C5 17.7642 7.9526 61.2816 C 0.0 **** 0.0
30950 C6 16.8529 8.86362 61.8565 C 0.0 **** 0.0
30951 C7 19.2665 7.59348 59.1326 C 0.0 **** 0.0
30952 C8 19.7296 8.55795 58.1977 C 0.0 **** 0.0
30953 C9 19.3055 9.9544 58.5296 C 0.0 **** 0.0
30954 C10 20.4134 8.14231 57.0381 C 0.0 **** 0.0
30955 C11 20.5833 6.7482 56.8002 C 0.0 **** 0.0
30956 C12 20.2724 5.82195 57.8202 C 0.0 **** 0.0
30957 C13 19.6478 6.23107 59.0123 C 0.0 **** 0.0
30958 C14 19.4758 5.2768 60.1766 C 0.0 **** 0.0
30959 C15 20.4679 4.13265 60.0377 C 0.0 **** 0.0
30960 C16 20.268 3.40416 58.7142 C 0.0 **** 0.0
30961 C17 20.4541 4.37057 57.5625 C 0.0 **** 0.0
30962 C18 20.6419 3.96314 56.2334 C 0.0 **** 0.0
30963 C19 20.9901 4.88513 55.2423 C 0.0 **** 0.0
30964 C20 21.1297 6.25988 55.5757 C 0.0 **** 0.0
30965 C21 21.7211 7.20059 54.7514 C 0.0 **** 0.0
30966 C22 21.3353 8.53275 54.8119 C 0.0 **** 0.0
30967 C23 20.7357 9.02721 55.9799 C 0.0 **** 0.0
30968 C24 21.1192 4.40186 53.8013 C 0.0 **** 0.0
30969 C25 20.062 3.36562 53.4369 C 0.0 **** 0.0
30970 C26 19.5975 2.48653 54.4753 C 0.0 **** 0.0
30971 C27 20.3893 2.48875 55.7703 C 0.0 **** 0.0
30972 C28 18.4287 1.72763 54.2879 C 0.0 **** 0.0
30973 C29 17.9066 1.58985 52.9889 C 0.0 **** 0.0
30974 C30 18.4806 2.30576 51.9336 C 0.0 **** 0.0
30975 C31 19.4736 3.28898 52.1456 C 0.0 **** 0.0
30976 C32 17.9064 2.16173 50.5956 C 0.0 **** 0.0
30977 C33 16.8886 1.12986 50.2876 C 0.0 **** 0.0
30978 C34 16.7258 0.0524095 51.3892 C 0.0 **** 0.0
30979 C35 16.7029 0.676999 52.7641 C 0.0 **** 0.0
30980 C36 19.698 4.24164 51.1359 C 0.0 **** 0.0
30981 C37 19.0025 4.21254 49.9055 C 0.0 **** 0.0
30982 C38 18.1562 3.14816 49.6229 C 0.0 **** 0.0
30983 C39 21.9691 9.26848 53.6282 C 0.0 **** 0.0
30984 C40 22.7751 8.16093 53.0276 C 0.0 **** 0.0
30985 C41 22.6877 7.03708 53.798 C 0.0 **** 0.0
30986 C42 23.626 6.00708 53.7048 C 0.0 **** 0.0
30987 C43 24.5546 6.04244 52.6478 C 0.0 **** 0.0
30988 C44 24.5707 7.12576 51.7872 C 0.0 **** 0.0
30989 C45 23.7495 8.2503 52.0234 C 0.0 **** 0.0
30990 C46 23.8916 9.42467 51.2795 C 0.0 **** 0.0
30991 C47 24.7536 9.45482 50.1703 C 0.0 **** 0.0
30992 C48 25.5162 8.30986 49.8287 C 0.0 **** 0.0
30993 C49 25.4589 7.1349 50.6777 C 0.0 **** 0.0
30994 C50 26.2756 6.00393 50.4554 C 0.0 **** 0.0
30995 C51 26.2205 4.94524 51.3255 C 0.0 **** 0.0
30996 C52 25.3986 4.94351 52.4541 C 0.0 **** 0.0
30997 O53 15.7436 11.061 61.7549 O 0.0 **** 0.0
30998 C54 16.0563 8.42542 63.0545 C 0.0 **** 0.0
30999 O55 20.5806 10.3866 56.1474 O 0.0 **** 0.0
31000 C56 24.7201 10.6299 49.1964 C 0.0 **** 0.0
31001 C57 23.4281 10.6171 48.4244 C 0.0 **** 0.0
31002 O58 19.1364 5.22303 48.9468 O 0.0 **** 0.0
31003 O59 17.8467 0.955664 55.2754 O 0.0 **** 0.0
31004 O60 27.1075 5.90626 49.3485 O 0.0 **** 0.0
31005 H61 17.6813 11.729 60.0222 H 0.0 **** 0.0
31006 H62 17.7958 6.90414 61.6348 H 0.0 **** 0.0
31007 H63 20.23 10.5613 58.7041 H 0.0 **** 0.0
31008 H64 18.6293 10.3626 57.7399 H 0.0 **** 0.0
31009 H65 19.6709 5.84216 61.105 H 0.0 **** 0.0
31010 H66 18.448 4.88506 60.1237 H 0.0 **** 0.0
31011 H67 21.5151 4.49607 60.1534 H 0.0 **** 0.0
31012 H68 20.3381 3.37706 60.8724 H 0.0 **** 0.0
31013 H69 21.0041 2.56467 58.6873 H 0.0 **** 0.0
31014 H70 19.2076 3.09805 58.6872 H 0.0 **** 0.0
31015 H71 21.0803 5.29203 53.1343 H 0.0 **** 0.0
31016 H72 19.8373 1.89896 56.5003 H 0.0 **** 0.0
31017 H73 15.9276 1.6759 50.1103 H 0.0 **** 0.0
31018 H74 17.2699 0.681108 49.3665 H 0.0 **** 0.0
31019 H75 15.7919 -0.524529 51.2854 H 0.0 **** 0.0
31020 H76 17.5601 -0.69264 51.292 H 0.0 **** 0.0
31021 H77 15.8041 1.33271 52.7499 H 0.0 **** 0.0
31022 H78 16.5586 -0.0858579 53.5298 H 0.0 **** 0.0
31023 H79 20.3938 5.0355 51.2563 H 0.0 **** 0.0
31024 H80 17.5906 3.15533 48.6599 H 0.0 **** 0.0
31025 H81 21.195 9.6063 52.875 H 0.0 **** 0.0
31026 H82 22.6219 10.0694 53.9934 H 0.0 **** 0.0
31027 H83 23.6707 5.21658 54.4389 H 0.0 **** 0.0
31028 H84 23.2824 10.2816 51.5023 H 0.0 **** 0.0
31029 H85 26.1731 8.34773 48.9877 H 0.0 **** 0.0
31030 H86 26.905 4.08873 51.1628 H 0.0 **** 0.0
31031 H87 25.3144 4.09349 53.1643 H 0.0 **** 0.0
31032 H88 15.5903 11.8335 61.1163 H 0.0 **** 0.0
31033 H89 16.4297 9.01087 63.9268 H 0.0 **** 0.0
31034 H90 16.252 7.35748 63.2578 H 0.0 **** 0.0
31035 H91 14.9679 8.54205 62.8653 H 0.0 **** 0.0
31036 H92 20.6036 10.9285 55.2835 H 0.0 **** 0.0
31037 H93 24.8277 11.6066 49.7231 H 0.0 **** 0.0
31038 H94 23.3827 11.4399 47.6889 H 0.0 **** 0.0
31039 H95 22.5609 10.7204 49.1134 H 0.0 **** 0.0
31040 H96 23.3411 9.71692 47.8154 H 0.0 **** 0.0
31041 H97 19.7697 5.96268 49.2545 H 0.0 **** 0.0
31042 H98 17.8437 1.31428 56.2612 H 0.0 **** 0.0
31043 H99 26.5804 6.07198 48.5117 H 0.0 **** 0.0
31044 H100 22.0229 3.87032 53.6079 H 0.0 **** 0.0
31045 H101 21.3787 2.01185 55.6302 H 0.0 **** 0.0
31046 H102 25.5138 10.5446 48.4798 H 0.0 **** 0.0
31047 C1 59.5726 70.0788 45.6417 C 0.0 **** 0.0
31048 C2 59.3831 70.0699 47.0476 C 0.0 **** 0.0
31049 C3 58.4756 69.189 47.6203 C 0.0 **** 0.0
31050 C4 57.7048 68.3137 46.8886 C 0.0 **** 0.0
31051 C5 57.9525 68.2093 45.5051 C 0.0 **** 0.0
31052 C6 58.9131 69.0682 44.8956 C 0.0 **** 0.0
31053 C7 56.8744 67.4608 47.7998 C 0.0 **** 0.0
31054 C8 57.311 67.7369 49.0813 C 0.0 **** 0.0
31055 C9 58.2945 68.9119 49.0977 C 0.0 **** 0.0
31056 C10 56.8419 66.9762 50.1805 C 0.0 **** 0.0
31057 C11 56.081 65.7779 49.9062 C 0.0 **** 0.0
31058 C12 55.6267 65.5008 48.6112 C 0.0 **** 0.0
31059 C13 55.9858 66.3894 47.5477 C 0.0 **** 0.0
31060 C14 55.4015 66.1297 46.1785 C 0.0 **** 0.0
31061 C15 54.0406 65.4374 46.2773 C 0.0 **** 0.0
31062 C16 54.0687 64.1446 47.0962 C 0.0 **** 0.0
31063 C17 54.7678 64.3126 48.3945 C 0.0 **** 0.0
31064 C18 54.7339 63.2865 49.3937 C 0.0 **** 0.0
31065 C19 55.3259 63.5226 50.6489 C 0.0 **** 0.0
31066 C20 55.7367 64.8672 50.9586 C 0.0 **** 0.0
31067 C21 55.9499 65.3789 52.2796 C 0.0 **** 0.0
31068 C22 56.6335 66.5693 52.5252 C 0.0 **** 0.0
31069 C23 57.1264 67.3406 51.5032 C 0.0 **** 0.0
31070 C24 55.8091 62.3281 51.4698 C 0.0 **** 0.0
31071 C25 54.763 61.1526 51.4931 C 0.0 **** 0.0
31072 C26 53.9906 61.0268 50.3052 C 0.0 **** 0.0
31073 C27 54.0722 61.9874 49.1233 C 0.0 **** 0.0
31074 C28 53.0305 59.9899 50.1838 C 0.0 **** 0.0
31075 C29 52.827 59.073 51.2441 C 0.0 **** 0.0
31076 C30 53.6688 59.1831 52.397 C 0.0 **** 0.0
31077 C31 54.6342 60.2143 52.5402 C 0.0 **** 0.0
31078 C32 53.4855 58.191 53.5123 C 0.0 **** 0.0
31079 C33 52.5821 56.963 53.3481 C 0.0 **** 0.0
31080 C34 51.4676 57.2492 52.3788 C 0.0 **** 0.0
31081 C35 51.9204 57.8352 51.0632 C 0.0 **** 0.0
31082 C36 55.2154 60.3894 53.8059 C 0.0 **** 0.0
31083 C37 55.1175 59.4075 54.8005 C 0.0 **** 0.0
31084 C38 54.2771 58.3151 54.6748 C 0.0 **** 0.0
31085 C39 56.6937 66.9089 53.958 C 0.0 **** 0.0
31086 C40 55.8681 65.8021 54.5017 C 0.0 **** 0.0
31087 C41 55.4553 64.9667 53.4706 C 0.0 **** 0.0
31088 C42 54.4303 64.0108 53.6774 C 0.0 **** 0.0
31089 C43 54.0623 63.7347 54.978 C 0.0 **** 0.0
31090 C44 54.5411 64.5662 56.0646 C 0.0 **** 0.0
31091 C45 55.4192 65.6481 55.8086 C 0.0 **** 0.0
31092 C46 55.8245 66.5197 56.8127 C 0.0 **** 0.0
31093 C47 55.2538 66.4097 58.0671 C 0.0 **** 0.0
31094 C48 54.4457 65.2651 58.3924 C 0.0 **** 0.0
31095 C49 54.0868 64.3265 57.3743 C 0.0 **** 0.0
31096 C50 53.2137 63.2326 57.6075 C 0.0 **** 0.0
31097 C51 52.8726 62.3888 56.5237 C 0.0 **** 0.0
31098 C52 53.2959 62.5916 55.225 C 0.0 **** 0.0
31099 O53 60.4088 71.0228 45.0167 O 0.0 **** 0.0
31100 C54 59.3034 68.7211 43.4812 C 0.0 **** 0.0
31101 O55 57.7053 68.5705 51.7951 O 0.0 **** 0.0
31102 C56 55.5086 67.4792 59.0612 C 0.0 **** 0.0
31103 C57 56.9659 67.76 59.3994 C 0.0 **** 0.0
31104 O58 55.8146 59.4798 56.0076 O 0.0 **** 0.0
31105 O59 52.3534 59.9157 48.9681 O 0.0 **** 0.0
31106 O60 52.7101 62.9068 58.8728 O 0.0 **** 0.0
31107 H61 59.9174 70.7081 47.7206 H 0.0 **** 0.0
31108 H62 57.4012 67.5351 44.8804 H 0.0 **** 0.0
31109 H63 57.866 69.8062 49.587 H 0.0 **** 0.0
31110 H64 59.3016 68.5359 49.541 H 0.0 **** 0.0
31111 H65 55.3043 67.0776 45.6555 H 0.0 **** 0.0
31112 H66 56.0636 65.4534 45.5872 H 0.0 **** 0.0
31113 H67 53.2742 66.069 46.7751 H 0.0 **** 0.0
31114 H68 53.7215 65.1637 45.2361 H 0.0 **** 0.0
31115 H69 52.9582 63.8884 47.2275 H 0.0 **** 0.0
31116 H70 54.5662 63.3719 46.4825 H 0.0 **** 0.0
31117 H71 56.7029 61.9359 50.9712 H 0.0 **** 0.0
31118 H72 53.0595 62.1917 48.7488 H 0.0 **** 0.0
31119 H73 53.2033 56.1398 52.8796 H 0.0 **** 0.0
31120 H74 52.2305 56.6078 54.3337 H 0.0 **** 0.0
31121 H75 50.9326 56.268 52.162 H 0.0 **** 0.0
31122 H76 50.824 57.9592 52.9128 H 0.0 **** 0.0
31123 H77 52.568 57.0709 50.5604 H 0.0 **** 0.0
31124 H78 51.0225 58.054 50.4564 H 0.0 **** 0.0
31125 H79 55.7915 61.2788 54.021 H 0.0 **** 0.0
31126 H80 54.1611 57.5247 55.4402 H 0.0 **** 0.0
31127 H81 57.7065 66.9369 54.4037 H 0.0 **** 0.0
31128 H82 56.2054 67.888 54.097 H 0.0 **** 0.0
31129 H83 53.8894 63.5447 52.8688 H 0.0 **** 0.0
31130 H84 56.5372 67.2929 56.5984 H 0.0 **** 0.0
31131 H85 54.0466 65.1526 59.4223 H 0.0 **** 0.0
31132 H86 52.1875 61.5458 56.6921 H 0.0 **** 0.0
31133 H87 52.9627 61.9518 54.4157 H 0.0 **** 0.0
31134 H88 60.7267 71.8127 45.6122 H 0.0 **** 0.0
31135 H89 58.4939 69.0911 42.8193 H 0.0 **** 0.0
31136 H90 59.2938 67.62 43.3259 H 0.0 **** 0.0
31137 H91 60.2616 69.1846 43.2694 H 0.0 **** 0.0
31138 H92 57.9536 68.7036 52.7713 H 0.0 **** 0.0
31139 H93 55.0845 68.4481 58.6954 H 0.0 **** 0.0
31140 H94 56.9365 68.7586 59.9693 H 0.0 **** 0.0
31141 H95 57.6264 67.7301 58.512 H 0.0 **** 0.0
31142 H96 57.3573 67.0034 60.1 H 0.0 **** 0.0
31143 H97 56.2121 60.4562 56.1469 H 0.0 **** 0.0
31144 H98 51.7782 59.0925 48.8553 H 0.0 **** 0.0
31145 H99 52.6763 63.6418 59.5317 H 0.0 **** 0.0
31146 H100 56.1721 62.6013 52.4772 H 0.0 **** 0.0
31147 H101 54.6113 61.4996 48.2749 H 0.0 **** 0.0
31148 H102 54.9797 67.3536 60.004 H 0.0 **** 0.0
31149 C1 102.961 36.3149 84.3553 C 0.0 **** 0.0
31150 C2 103.895 37.3539 84.6189 C 0.0 **** 0.0
31151 C3 103.703 38.2191 85.6969 C 0.0 **** 0.0
31152 C4 102.683 37.9919 86.593 C 0.0 **** 0.0
31153 C5 101.909 36.8688 86.4583 C 0.0 **** 0.0
31154 C6 101.998 36.0582 85.3167 C 0.0 **** 0.0
31155 C7 102.951 38.8011 87.8195 C 0.0 **** 0.0
31156 C8 104.148 39.4968 87.6586 C 0.0 **** 0.0
31157 C9 104.676 39.2232 86.2637 C 0.0 **** 0.0
31158 C10 104.707 40.3038 88.6779 C 0.0 **** 0.0
31159 C11 103.982 40.4431 89.9378 C 0.0 **** 0.0
31160 C12 102.731 39.7837 90.0785 C 0.0 **** 0.0
31161 C13 102.179 38.9835 88.9802 C 0.0 **** 0.0
31162 C14 100.826 38.3581 89.1439 C 0.0 **** 0.0
31163 C15 100.001 39.1106 90.1332 C 0.0 **** 0.0
31164 C16 100.657 39.35 91.5154 C 0.0 **** 0.0
31165 C17 102.027 39.9804 91.3585 C 0.0 **** 0.0
31166 C18 102.693 40.5232 92.4777 C 0.0 **** 0.0
31167 C19 103.928 41.1745 92.3301 C 0.0 **** 0.0
31168 C20 104.487 41.2678 91.0009 C 0.0 **** 0.0
31169 C21 105.535 42.1823 90.6991 C 0.0 **** 0.0
31170 C22 106.33 41.9237 89.5678 C 0.0 **** 0.0
31171 C23 105.909 41.0329 88.5493 C 0.0 **** 0.0
31172 C24 104.73 41.4741 93.6283 C 0.0 **** 0.0
31173 C25 104.168 41.0417 94.9707 C 0.0 **** 0.0
31174 C26 102.836 40.5936 95.0858 C 0.0 **** 0.0
31175 C27 101.998 40.4469 93.8599 C 0.0 **** 0.0
31176 C28 102.194 40.3777 96.3428 C 0.0 **** 0.0
31177 C29 102.995 40.3905 97.4837 C 0.0 **** 0.0
31178 C30 104.34 40.7704 97.4013 C 0.0 **** 0.0
31179 C31 104.899 41.1499 96.1611 C 0.0 **** 0.0
31180 C32 105.165 40.7963 98.6449 C 0.0 **** 0.0
31181 C33 104.456 40.5899 99.9564 C 0.0 **** 0.0
31182 C34 102.994 40.8855 99.9319 C 0.0 **** 0.0
31183 C35 102.377 40.0973 98.8289 C 0.0 **** 0.0
31184 C36 106.218 41.6848 96.1787 C 0.0 **** 0.0
31185 C37 106.985 41.8135 97.3324 C 0.0 **** 0.0
31186 C38 106.464 41.3604 98.5682 C 0.0 **** 0.0
31187 C39 107.194 43.1776 89.2782 C 0.0 **** 0.0
31188 C40 106.625 44.1687 90.288 C 0.0 **** 0.0
31189 C41 105.634 43.552 91.04 C 0.0 **** 0.0
31190 C42 104.696 44.3261 91.7861 C 0.0 **** 0.0
31191 C43 104.789 45.7477 91.7589 C 0.0 **** 0.0
31192 C44 105.943 46.3431 91.1057 C 0.0 **** 0.0
31193 C45 106.864 45.5579 90.3625 C 0.0 **** 0.0
31194 C46 107.998 46.1578 89.7363 C 0.0 **** 0.0
31195 C47 108.178 47.5454 89.8219 C 0.0 **** 0.0
31196 C48 107.27 48.3366 90.4998 C 0.0 **** 0.0
31197 C49 106.122 47.7679 91.1163 C 0.0 **** 0.0
31198 C50 105.054 48.5423 91.6083 C 0.0 **** 0.0
31199 C51 103.939 47.9392 92.2166 C 0.0 **** 0.0
31200 C52 103.754 46.5591 92.1947 C 0.0 **** 0.0
31201 O53 102.953 35.6382 83.1559 O 0.0 **** 0.0
31202 C54 101.004 35.037 85.0213 C 0.0 **** 0.0
31203 O55 106.668 40.8767 87.3776 O 0.0 **** 0.0
31204 C56 109.381 48.2236 89.155 C 0.0 **** 0.0
31205 C57 109.284 48.0895 87.634 C 0.0 **** 0.0
31206 O58 108.27 42.3695 97.1776 O 0.0 **** 0.0
31207 O59 100.848 39.9701 96.495 O 0.0 **** 0.0
31208 O60 105.014 49.97 91.5768 O 0.0 **** 0.0
31209 H61 104.759 37.5023 83.9957 H 0.0 **** 0.0
31210 H62 101.214 36.5819 87.2084 H 0.0 **** 0.0
31211 H63 104.557 40.1303 85.6462 H 0.0 **** 0.0
31212 H64 105.656 38.832 86.3681 H 0.0 **** 0.0
31213 H65 100.252 38.4278 88.2051 H 0.0 **** 0.0
31214 H66 101.022 37.3033 89.474 H 0.0 **** 0.0
31215 H67 99.7292 40.1604 89.7697 H 0.0 **** 0.0
31216 H68 99.0732 38.5196 90.3494 H 0.0 **** 0.0
31217 H69 99.9571 40.0081 92.1282 H 0.0 **** 0.0
31218 H70 100.797 38.3733 92.0186 H 0.0 **** 0.0
31219 H71 105.709 40.982 93.521 H 0.0 **** 0.0
31220 H72 101.592 39.4231 93.9202 H 0.0 **** 0.0
31221 H73 104.599 39.5178 100.3 H 0.0 **** 0.0
31222 H74 104.919 41.2517 100.772 H 0.0 **** 0.0
31223 H75 102.511 40.6465 100.908 H 0.0 **** 0.0
31224 H76 102.816 41.9786 99.7275 H 0.0 **** 0.0
31225 H77 102.45 39.0252 99.087 H 0.0 **** 0.0
31226 H78 101.311 40.4183 98.8431 H 0.0 **** 0.0
31227 H79 106.616 42.0796 95.2715 H 0.0 **** 0.0
31228 H80 107.012 41.4307 99.4727 H 0.0 **** 0.0
31229 H81 108.272 42.9792 89.3865 H 0.0 **** 0.0
31230 H82 106.956 43.5649 88.2092 H 0.0 **** 0.0
31231 H83 103.741 43.8983 92.1209 H 0.0 **** 0.0
31232 H84 108.695 45.5383 89.1811 H 0.0 **** 0.0
31233 H85 107.433 49.3844 90.5832 H 0.0 **** 0.0
31234 H86 103.128 48.5574 92.6613 H 0.0 **** 0.0
31235 H87 102.833 46.1579 92.6499 H 0.0 **** 0.0
31236 H88 103.613 36.0138 82.4775 H 0.0 **** 0.0
31237 H89 100.332 35.282 84.1491 H 0.0 **** 0.0
31238 H90 100.258 34.8836 85.8755 H 0.0 **** 0.0
31239 H91 101.475 34.0611 84.8434 H 0.0 **** 0.0
31240 H92 107.527 41.3671 87.3123 H 0.0 **** 0.0
31241 H93 109.373 49.3113 89.3924 H 0.0 **** 0.0
31242 H94 109.361 47.0435 87.3548 H 0.0 **** 0.0
31243 H95 110.047 48.7598 87.1109 H 0.0 **** 0.0
31244 H96 108.265 48.4152 87.3855 H 0.0 **** 0.0
31245 H97 108.796 42.5111 98.0337 H 0.0 **** 0.0
31246 H98 100.352 39.8172 95.6026 H 0.0 **** 0.0
31247 H99 105.405 50.3869 90.729 H 0.0 **** 0.0
31248 H100 104.948 42.5825 93.7027 H 0.0 **** 0.0
31249 H101 101.163 41.2253 93.8725 H 0.0 **** 0.0
31250 H102 110.323 47.7948 89.5813 H 0.0 **** 0.0
31251 C1 46.1792 55.5905 50.9469 C 0.0 **** 0.0
31252 C2 47.0536 54.9639 50.028 C 0.0 **** 0.0
31253 C3 47.8395 53.8923 50.4445 C 0.0 **** 0.0
31254 C4 47.7783 53.4838 51.7667 C 0.0 **** 0.0
31255 C5 46.8665 54.0432 52.6672 C 0.0 **** 0.0
31256 C6 46.1426 55.1762 52.2929 C 0.0 **** 0.0
31257 C7 48.5672 52.2522 51.876 C 0.0 **** 0.0
31258 C8 49.0535 51.9437 50.6356 C 0.0 **** 0.0
31259 C9 48.7631 53.079 49.6619 C 0.0 **** 0.0
31260 C10 49.8086 50.7618 50.3917 C 0.0 **** 0.0
31261 C11 50.1611 49.9751 51.5312 C 0.0 **** 0.0
31262 C12 49.7697 50.3975 52.8354 C 0.0 **** 0.0
31263 C13 48.9534 51.5253 53.0157 C 0.0 **** 0.0
31264 C14 48.5928 51.9716 54.4403 C 0.0 **** 0.0
31265 C15 49.6948 51.6169 55.451 C 0.0 **** 0.0
31266 C16 50.0417 50.1065 55.4569 C 0.0 **** 0.0
31267 C17 50.2089 49.5683 54.0107 C 0.0 **** 0.0
31268 C18 50.5895 48.2044 53.7321 C 0.0 **** 0.0
31269 C19 50.7725 47.7966 52.414 C 0.0 **** 0.0
31270 C20 50.8114 48.7714 51.3673 C 0.0 **** 0.0
31271 C21 51.4272 48.4985 50.1165 C 0.0 **** 0.0
31272 C22 51.0255 49.1898 49.0067 C 0.0 **** 0.0
31273 C23 50.1522 50.2829 49.0995 C 0.0 **** 0.0
31274 C24 50.4997 46.3895 52.0088 C 0.0 **** 0.0
31275 C25 50.443 45.3461 53.0633 C 0.0 **** 0.0
31276 C26 50.5689 45.7117 54.4412 C 0.0 **** 0.0
31277 C27 50.5382 47.1844 54.8957 C 0.0 **** 0.0
31278 C28 50.7036 44.6709 55.41 C 0.0 **** 0.0
31279 C29 50.6044 43.306 55.0076 C 0.0 **** 0.0
31280 C30 50.2834 43.0014 53.6626 C 0.0 **** 0.0
31281 C31 50.2115 43.9931 52.6948 C 0.0 **** 0.0
31282 C32 50.0746 41.5933 53.2166 C 0.0 **** 0.0
31283 C33 50.1759 40.4739 54.2082 C 0.0 **** 0.0
31284 C34 51.1259 40.8718 55.3372 C 0.0 **** 0.0
31285 C35 50.6505 42.1578 56.019 C 0.0 **** 0.0
31286 C36 49.9202 43.6425 51.3546 C 0.0 **** 0.0
31287 C37 49.6705 42.3292 50.95 C 0.0 **** 0.0
31288 C38 49.731 41.2924 51.8809 C 0.0 **** 0.0
31289 C39 51.7498 48.7439 47.7761 C 0.0 **** 0.0
31290 C40 52.7177 47.7832 48.3994 C 0.0 **** 0.0
31291 C41 52.4601 47.6405 49.762 C 0.0 **** 0.0
31292 C42 53.3896 47.0043 50.588 C 0.0 **** 0.0
31293 C43 54.462 46.2994 49.9967 C 0.0 **** 0.0
31294 C44 54.5797 46.2555 48.5785 C 0.0 **** 0.0
31295 C45 53.7456 47.0692 47.7818 C 0.0 **** 0.0
31296 C46 53.9127 47.0915 46.3639 C 0.0 **** 0.0
31297 C47 54.8506 46.2073 45.7437 C 0.0 **** 0.0
31298 C48 55.6807 45.4311 46.5541 C 0.0 **** 0.0
31299 C49 55.6116 45.4527 47.9597 C 0.0 **** 0.0
31300 C50 56.5272 44.7443 48.8039 C 0.0 **** 0.0
31301 C51 56.4702 44.9313 50.1866 C 0.0 **** 0.0
31302 C52 55.4113 45.6348 50.7942 C 0.0 **** 0.0
31303 O53 45.4445 56.6437 50.5165 O 0.0 **** 0.0
31304 C54 45.2919 55.9708 53.299 C 0.0 **** 0.0
31305 O55 49.6391 50.9369 47.9693 O 0.0 **** 0.0
31306 C56 55.1643 46.2006 44.254 C 0.0 **** 0.0
31307 C57 53.9656 46.0575 43.3675 C 0.0 **** 0.0
31308 O58 49.2745 41.9989 49.6368 O 0.0 **** 0.0
31309 O59 50.7869 44.9797 56.7804 O 0.0 **** 0.0
31310 O60 57.557 43.9228 48.3534 O 0.0 **** 0.0
31311 H61 47.1514 55.2712 48.9797 H 0.0 **** 0.0
31312 H62 46.7101 53.6064 53.6405 H 0.0 **** 0.0
31313 H63 49.7498 53.5337 49.456 H 0.0 **** 0.0
31314 H64 48.2523 52.7176 48.7224 H 0.0 **** 0.0
31315 H65 48.5089 53.063 54.5077 H 0.0 **** 0.0
31316 H66 47.6538 51.4213 54.7298 H 0.0 **** 0.0
31317 H67 50.6155 52.21 55.2357 H 0.0 **** 0.0
31318 H68 49.379 51.9434 56.4511 H 0.0 **** 0.0
31319 H69 50.9777 49.9391 56.0296 H 0.0 **** 0.0
31320 H70 49.2013 49.6263 55.9092 H 0.0 **** 0.0
31321 H71 49.5366 46.4418 51.4654 H 0.0 **** 0.0
31322 H72 49.6349 47.3511 55.4928 H 0.0 **** 0.0
31323 H73 49.1513 40.1032 54.5427 H 0.0 **** 0.0
31324 H74 50.6405 39.5681 53.7055 H 0.0 **** 0.0
31325 H75 51.1518 40.0629 56.0754 H 0.0 **** 0.0
31326 H76 52.1292 40.9825 54.8683 H 0.0 **** 0.0
31327 H77 49.6481 41.9829 56.51 H 0.0 **** 0.0
31328 H78 51.3976 42.4359 56.792 H 0.0 **** 0.0
31329 H79 49.7844 44.3694 50.5868 H 0.0 **** 0.0
31330 H80 49.4004 40.2706 51.5803 H 0.0 **** 0.0
31331 H81 51.0831 48.2181 47.0959 H 0.0 **** 0.0
31332 H82 52.1801 49.6408 47.2406 H 0.0 **** 0.0
31333 H83 53.3611 47.1111 51.6719 H 0.0 **** 0.0
31334 H84 53.274 47.7007 45.7551 H 0.0 **** 0.0
31335 H85 56.5269 44.9323 46.0702 H 0.0 **** 0.0
31336 H86 57.1945 44.4629 50.795 H 0.0 **** 0.0
31337 H87 55.3522 45.7355 51.8773 H 0.0 **** 0.0
31338 H88 45.5852 56.9015 49.5194 H 0.0 **** 0.0
31339 H89 45.6632 56.9968 53.4023 H 0.0 **** 0.0
31340 H90 44.2746 56.0567 52.9215 H 0.0 **** 0.0
31341 H91 45.2636 55.4181 54.2859 H 0.0 **** 0.0
31342 H92 49.8875 50.4494 47.1189 H 0.0 **** 0.0
31343 H93 55.8073 47.1335 44.0515 H 0.0 **** 0.0
31344 H94 53.3775 45.1411 43.5646 H 0.0 **** 0.0
31345 H95 54.3368 46.0327 42.3148 H 0.0 **** 0.0
31346 H96 53.276 46.9624 43.4925 H 0.0 **** 0.0
31347 H97 49.1217 42.8343 49.0539 H 0.0 **** 0.0
31348 H98 50.9206 45.9678 57.0313 H 0.0 **** 0.0
31349 H99 57.3568 43.5804 47.4164 H 0.0 **** 0.0
31350 H100 51.1152 46.0364 51.206 H 0.0 **** 0.0
31351 H101 51.4324 47.3605 55.5398 H 0.0 **** 0.0
31352 H102 55.8437 45.3113 44.0285 H 0.0 **** 0.0
31353 C1 9.69621 34.7813 58.8948 C 0.0 **** 0.0
31354 C2 10.1662 35.8098 58.0515 C 0.0 **** 0.0
31355 C3 9.47654 37.0102 57.9967 C 0.0 **** 0.0
31356 C4 8.37054 37.2167 58.7713 C 0.0 **** 0.0
31357 C5 7.88014 36.227 59.6456 C 0.0 **** 0.0
31358 C6 8.56226 35.0054 59.6741 C 0.0 **** 0.0
31359 C7 7.86974 38.5795 58.4774 C 0.0 **** 0.0
31360 C8 8.76272 39.1528 57.5571 C 0.0 **** 0.0
31361 C9 9.79325 38.1632 57.1752 C 0.0 **** 0.0
31362 C10 8.69869 40.5002 57.255 C 0.0 **** 0.0
31363 C11 7.71699 41.2743 57.9244 C 0.0 **** 0.0
31364 C12 6.78475 40.674 58.7988 C 0.0 **** 0.0
31365 C13 6.78242 39.3061 59.0484 C 0.0 **** 0.0
31366 C14 5.62988 38.6939 59.8334 C 0.0 **** 0.0
31367 C15 4.37801 39.5348 59.89 C 0.0 **** 0.0
31368 C16 4.69469 40.9405 60.3235 C 0.0 **** 0.0
31369 C17 5.87749 41.5398 59.6001 C 0.0 **** 0.0
31370 C18 6.19091 42.8922 59.7487 C 0.0 **** 0.0
31371 C19 7.07539 43.4758 58.8102 C 0.0 **** 0.0
31372 C20 7.71495 42.6913 57.8229 C 0.0 **** 0.0
31373 C21 8.53554 43.2098 56.7843 C 0.0 **** 0.0
31374 C22 9.57945 42.496 56.2853 C 0.0 **** 0.0
31375 C23 9.63067 41.1489 56.469 C 0.0 **** 0.0
31376 C24 7.45415 44.8826 59.1914 C 0.0 **** 0.0
31377 C25 6.24502 45.7426 59.649 C 0.0 **** 0.0
31378 C26 5.41958 45.1169 60.5916 C 0.0 **** 0.0
31379 C27 5.65999 43.67 60.9154 C 0.0 **** 0.0
31380 C28 4.35605 45.8373 61.2105 C 0.0 **** 0.0
31381 C29 4.01721 47.1795 60.7902 C 0.0 **** 0.0
31382 C30 4.85903 47.7603 59.8432 C 0.0 **** 0.0
31383 C31 6.01617 47.0924 59.3344 C 0.0 **** 0.0
31384 C32 4.62774 49.1934 59.4463 C 0.0 **** 0.0
31385 C33 3.46728 49.9595 59.9419 C 0.0 **** 0.0
31386 C34 2.37296 49.0848 60.5843 C 0.0 **** 0.0
31387 C35 2.95088 47.9779 61.4537 C 0.0 **** 0.0
31388 C36 6.91196 47.858 58.5731 C 0.0 **** 0.0
31389 C37 6.69057 49.2091 58.1948 C 0.0 **** 0.0
31390 C38 5.50927 49.8369 58.564 C 0.0 **** 0.0
31391 C39 10.3897 43.3179 55.3373 C 0.0 **** 0.0
31392 C40 9.60514 44.5552 55.3125 C 0.0 **** 0.0
31393 C41 8.47205 44.4246 56.1161 C 0.0 **** 0.0
31394 C42 7.4362 45.3267 55.9997 C 0.0 **** 0.0
31395 C43 7.61172 46.4843 55.2015 C 0.0 **** 0.0
31396 C44 8.84047 46.7081 54.5316 C 0.0 **** 0.0
31397 C45 9.84872 45.7047 54.5983 C 0.0 **** 0.0
31398 C46 11.0514 45.8805 53.8694 C 0.0 **** 0.0
31399 C47 11.3087 47.0539 53.1696 C 0.0 **** 0.0
31400 C48 10.3306 48.0663 53.1947 C 0.0 **** 0.0
31401 C49 9.08978 47.9139 53.8654 C 0.0 **** 0.0
31402 C50 8.04146 48.8897 53.8432 C 0.0 **** 0.0
31403 C51 6.83931 48.6836 54.5167 C 0.0 **** 0.0
31404 C52 6.65263 47.4875 55.2103 C 0.0 **** 0.0
31405 O53 10.3862 33.5269 58.9429 O 0.0 **** 0.0
31406 C54 8.02963 33.9437 60.5565 C 0.0 **** 0.0
31407 O55 10.6812 40.4054 55.8935 O 0.0 **** 0.0
31408 C56 12.5877 47.2689 52.4069 C 0.0 **** 0.0
31409 C57 13.7126 47.7595 53.2752 C 0.0 **** 0.0
31410 O58 7.69816 49.9287 57.5278 O 0.0 **** 0.0
31411 O59 3.75304 45.1952 62.3323 O 0.0 **** 0.0
31412 O60 8.11227 50.0991 53.1825 O 0.0 **** 0.0
31413 H61 10.957 35.711 57.4032 H 0.0 **** 0.0
31414 H62 7.10264 36.4656 60.3547 H 0.0 **** 0.0
31415 H63 9.70287 37.9211 56.1303 H 0.0 **** 0.0
31416 H64 10.8091 38.4864 57.4523 H 0.0 **** 0.0
31417 H65 5.29325 37.747 59.3279 H 0.0 **** 0.0
31418 H66 5.94178 38.5571 60.879 H 0.0 **** 0.0
31419 H67 3.92947 39.5438 58.8518 H 0.0 **** 0.0
31420 H68 3.65893 38.9975 60.5518 H 0.0 **** 0.0
31421 H69 3.78444 41.5585 60.1229 H 0.0 **** 0.0
31422 H70 4.79689 40.9149 61.3982 H 0.0 **** 0.0
31423 H71 8.11099 44.8216 60.0666 H 0.0 **** 0.0
31424 H72 6.40843 43.6161 61.6981 H 0.0 **** 0.0
31425 H73 3.84844 50.6949 60.705 H 0.0 **** 0.0
31426 H74 2.93553 50.532 59.1391 H 0.0 **** 0.0
31427 H75 1.81961 49.6569 61.3507 H 0.0 **** 0.0
31428 H76 1.73391 48.6354 59.757 H 0.0 **** 0.0
31429 H77 3.34665 48.342 62.453 H 0.0 **** 0.0
31430 H78 2.0247 47.3569 61.6616 H 0.0 **** 0.0
31431 H79 7.75698 47.3842 58.1571 H 0.0 **** 0.0
31432 H80 5.31841 50.8011 58.1109 H 0.0 **** 0.0
31433 H81 11.3991 43.5499 55.7008 H 0.0 **** 0.0
31434 H82 10.383 42.8057 54.3623 H 0.0 **** 0.0
31435 H83 6.53876 45.2769 56.5786 H 0.0 **** 0.0
31436 H84 11.7976 45.1294 53.8502 H 0.0 **** 0.0
31437 H85 10.5091 49.0012 52.6736 H 0.0 **** 0.0
31438 H86 6.06587 49.3949 54.4369 H 0.0 **** 0.0
31439 H87 5.70695 47.3528 55.7843 H 0.0 **** 0.0
31440 H88 11.2129 33.4622 58.3565 H 0.0 **** 0.0
31441 H89 8.15039 32.9661 60.0413 H 0.0 **** 0.0
31442 H90 6.9632 34.0729 60.8041 H 0.0 **** 0.0
31443 H91 8.63223 33.9053 61.5059 H 0.0 **** 0.0
31444 H92 11.3926 40.8767 55.4668 H 0.0 **** 0.0
31445 H93 12.8969 46.3443 51.8587 H 0.0 **** 0.0
31446 H94 14.5279 48.0377 52.6159 H 0.0 **** 0.0
31447 H95 14.019 47.0141 54.0006 H 0.0 **** 0.0
31448 H96 13.3977 48.7544 53.7458 H 0.0 **** 0.0
31449 H97 8.53753 49.3841 57.369 H 0.0 **** 0.0
31450 H98 3.05433 45.7905 62.8216 H 0.0 **** 0.0
31451 H99 8.82226 50.2377 52.5182 H 0.0 **** 0.0
31452 H100 8.06931 45.3155 58.4134 H 0.0 **** 0.0
31453 H101 4.74612 43.216 61.3382 H 0.0 **** 0.0
31454 H102 12.3803 47.9765 51.6013 H 0.0 **** 0.0
31455 C1 35.917 38.8815 72.8845 C 0.0 **** 0.0
31456 C2 36.6161 38.1644 73.8534 C 0.0 **** 0.0
31457 C3 35.957 37.0947 74.4265 C 0.0 **** 0.0
31458 C4 34.6599 36.7694 74.0714 C 0.0 **** 0.0
31459 C5 33.9246 37.5103 73.1431 C 0.0 **** 0.0
31460 C6 34.5939 38.5789 72.4988 C 0.0 **** 0.0
31461 C7 34.3916 35.4377 74.6411 C 0.0 **** 0.0
31462 C8 35.5378 34.9782 75.3212 C 0.0 **** 0.0
31463 C9 36.6438 35.9807 75.2394 C 0.0 **** 0.0
31464 C10 35.6735 33.6635 75.803 C 0.0 **** 0.0
31465 C11 34.5286 32.8117 75.6814 C 0.0 **** 0.0
31466 C12 33.3308 33.2603 75.0456 C 0.0 **** 0.0
31467 C13 33.2805 34.5906 74.5161 C 0.0 **** 0.0
31468 C14 32.0102 35.0892 73.8797 C 0.0 **** 0.0
31469 C15 30.786 34.2235 74.2478 C 0.0 **** 0.0
31470 C16 30.9831 32.7438 74.0733 C 0.0 **** 0.0
31471 C17 32.2784 32.2989 74.7172 C 0.0 **** 0.0
31472 C18 32.503 30.9367 74.9862 C 0.0 **** 0.0
31473 C19 33.6913 30.5023 75.5379 C 0.0 **** 0.0
31474 C20 34.6006 31.4557 76.1167 C 0.0 **** 0.0
31475 C21 35.6697 31.1291 76.9915 C 0.0 **** 0.0
31476 C22 36.7841 31.9382 77.1025 C 0.0 **** 0.0
31477 C23 36.8329 33.2178 76.4937 C 0.0 **** 0.0
31478 C24 34.1238 29.0709 75.2233 C 0.0 **** 0.0
31479 C25 32.9705 28.1696 75.5622 C 0.0 **** 0.0
31480 C26 31.6732 28.5907 75.1706 C 0.0 **** 0.0
31481 C27 31.4747 29.919 74.5193 C 0.0 **** 0.0
31482 C28 30.533 27.8287 75.6267 C 0.0 **** 0.0
31483 C29 30.7195 26.833 76.5887 C 0.0 **** 0.0
31484 C30 31.9998 26.3829 76.8623 C 0.0 **** 0.0
31485 C31 33.122 26.9922 76.2978 C 0.0 **** 0.0
31486 C32 32.1961 25.2688 77.8142 C 0.0 **** 0.0
31487 C33 31.0859 24.8372 78.7777 C 0.0 **** 0.0
31488 C34 29.8784 25.7487 78.6802 C 0.0 **** 0.0
31489 C35 29.5241 26.1154 77.2115 C 0.0 **** 0.0
31490 C36 34.3439 26.3413 76.4038 C 0.0 **** 0.0
31491 C37 34.4288 25.1251 77.0211 C 0.0 **** 0.0
31492 C38 33.3961 24.6148 77.7727 C 0.0 **** 0.0
31493 C39 37.9033 31.2334 77.9192 C 0.0 **** 0.0
31494 C40 37.1066 30.0456 78.4207 C 0.0 **** 0.0
31495 C41 35.8413 30.0339 77.8204 C 0.0 **** 0.0
31496 C42 34.8006 29.1908 78.2637 C 0.0 **** 0.0
31497 C43 35.0556 28.377 79.3748 C 0.0 **** 0.0
31498 C44 36.3638 28.3727 79.9731 C 0.0 **** 0.0
31499 C45 37.44 29.1348 79.4359 C 0.0 **** 0.0
31500 C46 38.7241 29.1063 79.9924 C 0.0 **** 0.0
31501 C47 38.9471 28.2078 81.0319 C 0.0 **** 0.0
31502 C48 37.8899 27.4959 81.6519 C 0.0 **** 0.0
31503 C49 36.5669 27.6136 81.1647 C 0.0 **** 0.0
31504 C50 35.4502 26.8958 81.7703 C 0.0 **** 0.0
31505 C51 34.2711 26.8244 81.0695 C 0.0 **** 0.0
31506 C52 34.0657 27.5695 79.9291 C 0.0 **** 0.0
31507 O53 36.5014 40.0153 72.3246 O 0.0 **** 0.0
31508 C54 33.8595 39.4348 71.5186 C 0.0 **** 0.0
31509 O55 37.8484 34.131 76.8522 O 0.0 **** 0.0
31510 C56 40.3588 27.8277 81.3527 C 0.0 **** 0.0
31511 C57 40.7103 26.4458 80.7212 C 0.0 **** 0.0
31512 O58 35.5881 24.3631 76.8525 O 0.0 **** 0.0
31513 O59 29.2351 28.1018 75.2074 O 0.0 **** 0.0
31514 O60 35.5213 26.2508 82.9809 O 0.0 **** 0.0
31515 H61 37.6489 38.3788 74.2088 H 0.0 **** 0.0
31516 H62 32.9514 37.2904 72.8496 H 0.0 **** 0.0
31517 H63 36.954 36.3623 76.2803 H 0.0 **** 0.0
31518 H64 37.5617 35.5535 74.7086 H 0.0 **** 0.0
31519 H65 31.7641 36.0932 74.1924 H 0.0 **** 0.0
31520 H66 32.2539 35.0807 72.8382 H 0.0 **** 0.0
31521 H67 30.5518 34.4371 75.3325 H 0.0 **** 0.0
31522 H68 29.9585 34.5923 73.5537 H 0.0 **** 0.0
31523 H69 30.0733 32.264 74.4994 H 0.0 **** 0.0
31524 H70 31.0402 32.4844 73.0259 H 0.0 **** 0.0
31525 H71 34.2784 28.995 74.116 H 0.0 **** 0.0
31526 H72 31.4041 29.8131 73.4053 H 0.0 **** 0.0
31527 H73 30.7967 23.7476 78.5792 H 0.0 **** 0.0
31528 H74 31.4766 24.8937 79.8135 H 0.0 **** 0.0
31529 H75 28.9989 25.1864 79.1142 H 0.0 **** 0.0
31530 H76 30.0411 26.6025 79.38 H 0.0 **** 0.0
31531 H77 29.3216 25.1657 76.7327 H 0.0 **** 0.0
31532 H78 28.6662 26.7747 77.2214 H 0.0 **** 0.0
31533 H79 35.1996 26.8037 75.9278 H 0.0 **** 0.0
31534 H80 33.585 23.7653 78.3328 H 0.0 **** 0.0
31535 H81 38.732 30.9967 77.1821 H 0.0 **** 0.0
31536 H82 38.2418 31.929 78.7495 H 0.0 **** 0.0
31537 H83 33.7921 29.2267 77.833 H 0.0 **** 0.0
31538 H84 39.4824 29.7779 79.6454 H 0.0 **** 0.0
31539 H85 38.1506 26.8943 82.5306 H 0.0 **** 0.0
31540 H86 33.4248 26.272 81.4815 H 0.0 **** 0.0
31541 H87 33.057 27.4947 79.4524 H 0.0 **** 0.0
31542 H88 37.4693 40.1565 72.67 H 0.0 **** 0.0
31543 H89 33.267 38.7953 70.8207 H 0.0 **** 0.0
31544 H90 34.5699 39.9772 70.8866 H 0.0 **** 0.0
31545 H91 33.1366 40.1316 72.0089 H 0.0 **** 0.0
31546 H92 38.5778 33.7669 77.4638 H 0.0 **** 0.0
31547 H93 41.0478 28.6118 81.0082 H 0.0 **** 0.0
31548 H94 41.7598 26.1238 80.9538 H 0.0 **** 0.0
31549 H95 40.5691 26.5688 79.6306 H 0.0 **** 0.0
31550 H96 39.9576 25.5489 80.93 H 0.0 **** 0.0
31551 H97 36.2808 24.8927 76.3145 H 0.0 **** 0.0
31552 H98 29.1463 28.6299 74.3631 H 0.0 **** 0.0
31553 H99 36.3579 26.4432 83.5043 H 0.0 **** 0.0
31554 H100 35.0744 28.8222 75.7467 H 0.0 **** 0.0
31555 H101 30.4708 30.2639 74.873 H 0.0 **** 0.0
31556 H102 40.5511 27.7469 82.4795 H 0.0 **** 0.0
31557 C1 63.7617 64.3533 12.3296 C 0.0 **** 0.0
31558 C2 63.4038 65.5751 12.9007 C 0.0 **** 0.0
31559 C3 64.2765 66.6438 12.8278 C 0.0 **** 0.0
31560 C4 65.5742 66.5118 12.3352 C 0.0 **** 0.0
31561 C5 65.9408 65.3201 11.6877 C 0.0 **** 0.0
31562 C6 65.0016 64.2552 11.6564 C 0.0 **** 0.0
31563 C7 66.2602 67.7787 12.5894 C 0.0 **** 0.0
31564 C8 65.3553 68.7386 13.0578 C 0.0 **** 0.0
31565 C9 64.0049 68.0534 13.2779 C 0.0 **** 0.0
31566 C10 65.7675 70.0675 13.3158 C 0.0 **** 0.0
31567 C11 67.1883 70.3301 13.2342 C 0.0 **** 0.0
31568 C12 68.1058 69.3455 12.8215 C 0.0 **** 0.0
31569 C13 67.6526 68.0597 12.4789 C 0.0 **** 0.0
31570 C14 68.6234 66.9844 12.102 C 0.0 **** 0.0
31571 C15 70.0591 67.2701 12.6064 C 0.0 **** 0.0
31572 C16 70.5293 68.6424 12.1938 C 0.0 **** 0.0
31573 C17 69.5364 69.6923 12.5984 C 0.0 **** 0.0
31574 C18 69.8234 71.0698 12.4971 C 0.0 **** 0.0
31575 C19 68.8439 72.0563 12.7781 C 0.0 **** 0.0
31576 C20 67.6181 71.6764 13.384 C 0.0 **** 0.0
31577 C21 66.721 72.6303 13.8938 C 0.0 **** 0.0
31578 C22 65.3771 72.4073 13.8793 C 0.0 **** 0.0
31579 C23 64.8662 71.1508 13.5485 C 0.0 **** 0.0
31580 C24 69.001 73.344 11.9955 C 0.0 **** 0.0
31581 C25 69.4044 72.9726 10.583 C 0.0 **** 0.0
31582 C26 70.5329 72.0866 10.4317 C 0.0 **** 0.0
31583 C27 71.0723 71.5135 11.7543 C 0.0 **** 0.0
31584 C28 70.9248 71.5979 9.16207 C 0.0 **** 0.0
31585 C29 70.1782 71.9853 8.01954 C 0.0 **** 0.0
31586 C30 69.0421 72.8174 8.17929 C 0.0 **** 0.0
31587 C31 68.5757 73.2301 9.46283 C 0.0 **** 0.0
31588 C32 68.3071 73.3002 6.97072 C 0.0 **** 0.0
31589 C33 68.7723 72.9503 5.56045 C 0.0 **** 0.0
31590 C34 70.2379 72.405 5.539 C 0.0 **** 0.0
31591 C35 70.4778 71.3897 6.66835 C 0.0 **** 0.0
31592 C36 67.2839 73.847 9.57186 C 0.0 **** 0.0
31593 C37 66.6225 74.2495 8.40429 C 0.0 **** 0.0
31594 C38 67.1038 73.9421 7.12921 C 0.0 **** 0.0
31595 C39 64.621 73.6794 14.1035 C 0.0 **** 0.0
31596 C40 65.7285 74.6123 14.4734 C 0.0 **** 0.0
31597 C41 66.9331 73.926 14.4158 C 0.0 **** 0.0
31598 C42 68.1218 74.4908 14.9012 C 0.0 **** 0.0
31599 C43 68.0333 75.7358 15.5691 C 0.0 **** 0.0
31600 C44 66.8442 76.4903 15.5058 C 0.0 **** 0.0
31601 C45 65.688 75.9341 14.9339 C 0.0 **** 0.0
31602 C46 64.5316 76.6766 14.8043 C 0.0 **** 0.0
31603 C47 64.4472 77.9452 15.3911 C 0.0 **** 0.0
31604 C48 65.6026 78.5184 15.9878 C 0.0 **** 0.0
31605 C49 66.7639 77.7563 16.1458 C 0.0 **** 0.0
31606 C50 67.8567 78.1554 16.9789 C 0.0 **** 0.0
31607 C51 69.0171 77.3933 17.0109 C 0.0 **** 0.0
31608 C52 69.1309 76.2295 16.2798 C 0.0 **** 0.0
31609 O53 62.804 63.3504 12.1971 O 0.0 **** 0.0
31610 C54 65.3392 62.9014 11.0095 C 0.0 **** 0.0
31611 O55 63.4735 70.9428 13.4176 O 0.0 **** 0.0
31612 C56 63.1344 78.6439 15.4008 C 0.0 **** 0.0
31613 C57 62.2167 77.8607 16.316 C 0.0 **** 0.0
31614 O58 65.4287 74.9458 8.48567 O 0.0 **** 0.0
31615 O59 71.9631 70.6835 8.99716 O 0.0 **** 0.0
31616 O60 67.8204 79.2701 17.848 O 0.0 **** 0.0
31617 H61 62.4179 65.6335 13.3604 H 0.0 **** 0.0
31618 H62 66.8823 65.1958 11.1767 H 0.0 **** 0.0
31619 H63 63.6836 68.0673 14.3302 H 0.0 **** 0.0
31620 H64 63.2517 68.4477 12.5903 H 0.0 **** 0.0
31621 H65 68.3224 65.9969 12.5552 H 0.0 **** 0.0
31622 H66 68.6927 66.935 10.9841 H 0.0 **** 0.0
31623 H67 70.0111 67.3014 13.6992 H 0.0 **** 0.0
31624 H68 70.7444 66.4796 12.1865 H 0.0 **** 0.0
31625 H69 71.4805 68.8331 12.6875 H 0.0 **** 0.0
31626 H70 70.6339 68.6441 11.0885 H 0.0 **** 0.0
31627 H71 68.1029 73.9584 12.1151 H 0.0 **** 0.0
31628 H72 71.8326 70.6924 11.6128 H 0.0 **** 0.0
31629 H73 68.1397 72.1361 5.12137 H 0.0 **** 0.0
31630 H74 68.8087 73.8342 4.90578 H 0.0 **** 0.0
31631 H75 70.4358 71.8823 4.56369 H 0.0 **** 0.0
31632 H76 70.9853 73.198 5.61361 H 0.0 **** 0.0
31633 H77 69.8657 70.4742 6.4758 H 0.0 **** 0.0
31634 H78 71.5264 71.0526 6.60075 H 0.0 **** 0.0
31635 H79 66.8607 74.0482 10.5352 H 0.0 **** 0.0
31636 H80 66.5244 74.214 6.25791 H 0.0 **** 0.0
31637 H81 64.056 73.9307 13.1563 H 0.0 **** 0.0
31638 H82 63.8764 73.5708 14.952 H 0.0 **** 0.0
31639 H83 69.099 73.9308 14.9441 H 0.0 **** 0.0
31640 H84 63.6771 76.2191 14.3511 H 0.0 **** 0.0
31641 H85 65.5141 79.53 16.3302 H 0.0 **** 0.0
31642 H86 69.8701 77.6308 17.6112 H 0.0 **** 0.0
31643 H87 70.0318 75.6176 16.3966 H 0.0 **** 0.0
31644 H88 61.9583 63.4776 12.7072 H 0.0 **** 0.0
31645 H89 65.3845 62.0985 11.7409 H 0.0 **** 0.0
31646 H90 66.3403 62.9574 10.5343 H 0.0 **** 0.0
31647 H91 64.6024 62.6296 10.2734 H 0.0 **** 0.0
31648 H92 62.9165 71.7093 13.7899 H 0.0 **** 0.0
31649 H93 63.2091 79.6612 15.7205 H 0.0 **** 0.0
31650 H94 61.2801 78.4687 16.4837 H 0.0 **** 0.0
31651 H95 62.6597 77.6295 17.2761 H 0.0 **** 0.0
31652 H96 61.8877 76.889 15.8924 H 0.0 **** 0.0
31653 H97 65.1528 75.1621 9.4547 H 0.0 **** 0.0
31654 H98 72.6106 70.6434 9.74325 H 0.0 **** 0.0
31655 H99 66.9312 79.7032 18.0087 H 0.0 **** 0.0
31656 H100 69.7815 74.0031 12.489 H 0.0 **** 0.0
31657 H101 71.5924 72.2696 12.3505 H 0.0 **** 0.0
31658 H102 62.746 78.6447 14.3703 H 0.0 **** 0.0
31659 C1 81.821 20.6624 54.2159 C 0.0 **** 0.0
31660 C2 81.6747 19.3291 53.7107 C 0.0 **** 0.0
31661 C3 82.187 18.9899 52.4538 C 0.0 **** 0.0
31662 C4 82.8331 19.9034 51.6667 C 0.0 **** 0.0
31663 C5 82.9629 21.237 52.0875 C 0.0 **** 0.0
31664 C6 82.4351 21.627 53.3771 C 0.0 **** 0.0
31665 C7 83.4035 19.1424 50.5384 C 0.0 **** 0.0
31666 C8 83.183 17.8167 50.7135 C 0.0 **** 0.0
31667 C9 82.3758 17.62 51.9801 C 0.0 **** 0.0
31668 C10 83.8382 16.826 49.936 C 0.0 **** 0.0
31669 C11 84.7137 17.2748 48.9425 C 0.0 **** 0.0
31670 C12 84.7382 18.619 48.6127 C 0.0 **** 0.0
31671 C13 84.0387 19.5971 49.4141 C 0.0 **** 0.0
31672 C14 84.0042 21.0233 49.0764 C 0.0 **** 0.0
31673 C15 84.3997 21.2347 47.6271 C 0.0 **** 0.0
31674 C16 85.7475 20.5717 47.2591 C 0.0 **** 0.0
31675 C17 85.7013 19.0827 47.5842 C 0.0 **** 0.0
31676 C18 86.7794 18.276 47.2573 C 0.0 **** 0.0
31677 C19 86.782 16.9223 47.6756 C 0.0 **** 0.0
31678 C20 85.6447 16.3662 48.2927 C 0.0 **** 0.0
31679 C21 85.4036 14.9566 48.4629 C 0.0 **** 0.0
31680 C22 84.4128 14.5384 49.3814 C 0.0 **** 0.0
31681 C23 83.5935 15.4666 50.08 C 0.0 **** 0.0
31682 C24 88.1316 16.3185 47.9323 C 0.0 **** 0.0
31683 C25 89.0849 16.518 46.7832 C 0.0 **** 0.0
31684 C26 89.09 17.8208 46.1754 C 0.0 **** 0.0
31685 C27 87.9808 18.8317 46.5336 C 0.0 **** 0.0
31686 C28 90.1611 18.1833 45.3259 C 0.0 **** 0.0
31687 C29 91.0704 17.1748 44.89 C 0.0 **** 0.0
31688 C30 91.0223 15.9031 45.4556 C 0.0 **** 0.0
31689 C31 90.0721 15.5596 46.4371 C 0.0 **** 0.0
31690 C32 92.0058 14.8765 44.9972 C 0.0 **** 0.0
31691 C33 93.0438 15.1985 43.911 C 0.0 **** 0.0
31692 C34 92.6849 16.4314 43.0814 C 0.0 **** 0.0
31693 C35 92.2077 17.5747 43.9577 C 0.0 **** 0.0
31694 C36 90.0777 14.2419 46.935 C 0.0 **** 0.0
31695 C37 90.9964 13.2757 46.5238 C 0.0 **** 0.0
31696 C38 91.9706 13.6346 45.601 C 0.0 **** 0.0
31697 C39 84.1351 13.0768 49.2401 C 0.0 **** 0.0
31698 C40 85.1052 12.779 48.0757 C 0.0 **** 0.0
31699 C41 85.8141 13.8855 47.7022 C 0.0 **** 0.0
31700 C42 86.6231 13.8435 46.5592 C 0.0 **** 0.0
31701 C43 86.8397 12.625 45.9113 C 0.0 **** 0.0
31702 C44 86.0295 11.5043 46.2135 C 0.0 **** 0.0
31703 C45 85.1725 11.5813 47.3416 C 0.0 **** 0.0
31704 C46 84.4908 10.4535 47.7313 C 0.0 **** 0.0
31705 C47 84.5372 9.29111 46.9896 C 0.0 **** 0.0
31706 C48 85.3442 9.22736 45.8299 C 0.0 **** 0.0
31707 C49 86.1178 10.3189 45.4612 C 0.0 **** 0.0
31708 C50 87.0262 10.2934 44.3368 C 0.0 **** 0.0
31709 C51 87.8423 11.4438 44.0685 C 0.0 **** 0.0
31710 C52 87.7805 12.5784 44.8571 C 0.0 **** 0.0
31711 O53 81.2888 21.0514 55.421 O 0.0 **** 0.0
31712 C54 82.5241 23.0936 53.7591 C 0.0 **** 0.0
31713 O55 82.4966 15.0137 50.8362 O 0.0 **** 0.0
31714 C56 83.9473 7.99779 47.5548 C 0.0 **** 0.0
31715 C57 85.0326 7.21076 48.3095 C 0.0 **** 0.0
31716 O58 90.9277 11.9504 46.9636 O 0.0 **** 0.0
31717 O59 90.3568 19.4576 44.8595 O 0.0 **** 0.0
31718 O60 87.2397 9.14611 43.5618 O 0.0 **** 0.0
31719 H61 81.1472 18.5785 54.288 H 0.0 **** 0.0
31720 H62 83.4672 21.9359 51.4817 H 0.0 **** 0.0
31721 H63 81.4411 17.1077 51.7243 H 0.0 **** 0.0
31722 H64 82.9163 16.9742 52.7341 H 0.0 **** 0.0
31723 H65 82.9526 21.4093 49.2254 H 0.0 **** 0.0
31724 H66 84.7221 21.5668 49.6738 H 0.0 **** 0.0
31725 H67 83.5646 20.871 46.9635 H 0.0 **** 0.0
31726 H68 84.4655 22.306 47.4612 H 0.0 **** 0.0
31727 H69 85.8777 20.7652 46.1766 H 0.0 **** 0.0
31728 H70 86.6038 21.0523 47.848 H 0.0 **** 0.0
31729 H71 88.5308 16.9138 48.7804 H 0.0 **** 0.0
31730 H72 88.4098 19.6121 47.185 H 0.0 **** 0.0
31731 H73 94.0489 15.3762 44.3505 H 0.0 **** 0.0
31732 H74 93.1206 14.3012 43.2599 H 0.0 **** 0.0
31733 H75 93.5556 16.7236 42.4164 H 0.0 **** 0.0
31734 H76 91.8579 16.1458 42.3827 H 0.0 **** 0.0
31735 H77 93.0812 17.9264 44.5818 H 0.0 **** 0.0
31736 H78 91.9184 18.4724 43.3233 H 0.0 **** 0.0
31737 H79 89.3208 13.7898 47.5829 H 0.0 **** 0.0
31738 H80 92.6577 12.8238 45.3485 H 0.0 **** 0.0
31739 H81 84.3858 12.5002 50.1473 H 0.0 **** 0.0
31740 H82 83.0535 12.9131 49.007 H 0.0 **** 0.0
31741 H83 87.0049 14.7779 46.0998 H 0.0 **** 0.0
31742 H84 83.789 10.481 48.542 H 0.0 **** 0.0
31743 H85 85.3633 8.26271 45.3229 H 0.0 **** 0.0
31744 H86 88.5721 11.3765 43.2662 H 0.0 **** 0.0
31745 H87 88.4105 13.4024 44.5871 H 0.0 **** 0.0
31746 H88 80.7465 20.3596 55.9227 H 0.0 **** 0.0
31747 H89 82.9924 23.7037 52.9533 H 0.0 **** 0.0
31748 H90 83.0508 23.2624 54.6972 H 0.0 **** 0.0
31749 H91 81.5521 23.5597 53.9537 H 0.0 **** 0.0
31750 H92 82.4913 14.0124 50.8624 H 0.0 **** 0.0
31751 H93 83.0834 8.23423 48.1839 H 0.0 **** 0.0
31752 H94 84.7092 6.90568 49.2972 H 0.0 **** 0.0
31753 H95 85.942 7.81983 48.466 H 0.0 **** 0.0
31754 H96 85.3495 6.3305 47.6251 H 0.0 **** 0.0
31755 H97 90.0369 11.7097 47.4062 H 0.0 **** 0.0
31756 H98 89.9425 20.1676 45.4516 H 0.0 **** 0.0
31757 H99 86.8918 8.29506 43.9944 H 0.0 **** 0.0
31758 H100 88.0528 15.2661 48.3546 H 0.0 **** 0.0
31759 H101 87.636 19.2061 45.53 H 0.0 **** 0.0
31760 H102 83.6005 7.32904 46.7483 H 0.0 **** 0.0
31761 C1 60.0032 54.6054 105.684 C 0.0 **** 0.0
31762 C2 59.1316 54.9555 104.645 C 0.0 **** 0.0
31763 C3 59.2255 56.242 104.123 C 0.0 **** 0.0
31764 C4 60.126 57.1808 104.682 C 0.0 **** 0.0
31765 C5 61.1003 56.8188 105.615 C 0.0 **** 0.0
31766 C6 61.0011 55.498 106.146 C 0.0 **** 0.0
31767 C7 59.8799 58.4375 103.954 C 0.0 **** 0.0
31768 C8 58.845 58.166 103.046 C 0.0 **** 0.0
31769 C9 58.3294 56.7767 103.091 C 0.0 **** 0.0
31770 C10 58.1944 59.2078 102.377 C 0.0 **** 0.0
31771 C11 58.522 60.5809 102.645 C 0.0 **** 0.0
31772 C12 59.5873 60.8322 103.533 C 0.0 **** 0.0
31773 C13 60.237 59.7626 104.283 C 0.0 **** 0.0
31774 C14 61.1781 60.0775 105.444 C 0.0 **** 0.0
31775 C15 61.1862 61.5165 105.907 C 0.0 **** 0.0
31776 C16 61.2383 62.3988 104.699 C 0.0 **** 0.0
31777 C17 59.9924 62.2311 103.849 C 0.0 **** 0.0
31778 C18 59.3032 63.3142 103.243 C 0.0 **** 0.0
31779 C19 58.2276 63.0512 102.33 C 0.0 **** 0.0
31780 C20 57.8026 61.6947 102.095 C 0.0 **** 0.0
31781 C21 56.6139 61.343 101.415 C 0.0 **** 0.0
31782 C22 56.4349 60.012 100.965 C 0.0 **** 0.0
31783 C23 57.2247 58.9519 101.405 C 0.0 **** 0.0
31784 C24 57.921 64.1666 101.298 C 0.0 **** 0.0
31785 C25 57.8689 65.5588 101.883 C 0.0 **** 0.0
31786 C26 58.6275 65.8422 103.05 C 0.0 **** 0.0
31787 C27 59.6883 64.7948 103.537 C 0.0 **** 0.0
31788 C28 58.4726 67.1178 103.706 C 0.0 **** 0.0
31789 C29 57.441 67.9675 103.331 C 0.0 **** 0.0
31790 C30 56.637 67.6949 102.204 C 0.0 **** 0.0
31791 C31 56.9014 66.5361 101.422 C 0.0 **** 0.0
31792 C32 55.5489 68.6298 101.823 C 0.0 **** 0.0
31793 C33 55.124 69.727 102.733 C 0.0 **** 0.0
31794 C34 55.8684 69.7313 104.115 C 0.0 **** 0.0
31795 C35 57.3317 69.3411 103.956 C 0.0 **** 0.0
31796 C36 56.1849 66.4879 100.178 C 0.0 **** 0.0
31797 C37 55.5154 67.6125 99.6899 C 0.0 **** 0.0
31798 C38 55.0968 68.627 100.515 C 0.0 **** 0.0
31799 C39 55.1517 59.7713 100.326 C 0.0 **** 0.0
31800 C40 54.5124 61.0518 100.531 C 0.0 **** 0.0
31801 C41 55.3646 61.9603 101.184 C 0.0 **** 0.0
31802 C42 54.8494 63.1768 101.643 C 0.0 **** 0.0
31803 C43 53.5227 63.5572 101.277 C 0.0 **** 0.0
31804 C44 52.7115 62.6196 100.542 C 0.0 **** 0.0
31805 C45 53.1788 61.306 100.287 C 0.0 **** 0.0
31806 C46 52.3205 60.3241 99.7578 C 0.0 **** 0.0
31807 C47 50.944 60.6449 99.5496 C 0.0 **** 0.0
31808 C48 50.4852 61.9303 99.834 C 0.0 **** 0.0
31809 C49 51.3559 62.9328 100.298 C 0.0 **** 0.0
31810 C50 50.8454 64.2327 100.654 C 0.0 **** 0.0
31811 C51 51.7151 65.1568 101.268 C 0.0 **** 0.0
31812 C52 52.9958 64.7685 101.671 C 0.0 **** 0.0
31813 O53 59.9828 53.3358 106.214 O 0.0 **** 0.0
31814 C54 61.9392 55.0277 107.265 C 0.0 **** 0.0
31815 O55 56.9845 57.6501 100.923 O 0.0 **** 0.0
31816 C56 49.9795 59.5848 99.0851 C 0.0 **** 0.0
31817 C57 48.8463 60.1836 98.1537 C 0.0 **** 0.0
31818 O58 55.2329 67.7812 98.349 O 0.0 **** 0.0
31819 O59 59.2514 67.4481 104.848 O 0.0 **** 0.0
31820 O60 49.5245 64.6654 100.374 O 0.0 **** 0.0
31821 H61 58.3307 54.3635 104.285 H 0.0 **** 0.0
31822 H62 61.8482 57.5464 105.942 H 0.0 **** 0.0
31823 H63 57.2909 56.7363 103.536 H 0.0 **** 0.0
31824 H64 58.4267 56.2413 102.14 H 0.0 **** 0.0
31825 H65 60.8715 59.4527 106.307 H 0.0 **** 0.0
31826 H66 62.2346 59.824 105.117 H 0.0 **** 0.0
31827 H67 60.2604 61.7086 106.529 H 0.0 **** 0.0
31828 H68 62.0714 61.6241 106.587 H 0.0 **** 0.0
31829 H69 61.3475 63.4315 105.071 H 0.0 **** 0.0
31830 H70 62.1422 62.1007 104.107 H 0.0 **** 0.0
31831 H71 58.8199 64.205 100.609 H 0.0 **** 0.0
31832 H72 60.667 64.9806 103.108 H 0.0 **** 0.0
31833 H73 55.2548 70.7243 102.2 H 0.0 **** 0.0
31834 H74 54.0313 69.6935 102.904 H 0.0 **** 0.0
31835 H75 55.8197 70.8022 104.458 H 0.0 **** 0.0
31836 H76 55.3593 69.0276 104.81 H 0.0 **** 0.0
31837 H77 57.7607 70.1145 103.282 H 0.0 **** 0.0
31838 H78 57.866 69.3766 104.921 H 0.0 **** 0.0
31839 H79 56.5551 65.798 99.4602 H 0.0 **** 0.0
31840 H80 54.3937 69.3947 100.147 H 0.0 **** 0.0
31841 H81 55.3656 59.5385 99.2644 H 0.0 **** 0.0
31842 H82 54.627 58.9215 100.843 H 0.0 **** 0.0
31843 H83 55.4392 63.8866 102.195 H 0.0 **** 0.0
31844 H84 52.6658 59.3172 99.5139 H 0.0 **** 0.0
31845 H85 49.4367 62.0537 99.8706 H 0.0 **** 0.0
31846 H86 51.4267 66.199 101.449 H 0.0 **** 0.0
31847 H87 53.6313 65.4064 102.248 H 0.0 **** 0.0
31848 H88 59.3069 52.7282 105.761 H 0.0 **** 0.0
31849 H89 61.7499 53.9471 107.491 H 0.0 **** 0.0
31850 H90 61.7287 55.5831 108.202 H 0.0 **** 0.0
31851 H91 62.9916 55.1684 106.981 H 0.0 **** 0.0
31852 H92 56.4415 57.5951 100.082 H 0.0 **** 0.0
31853 H93 50.571 58.8578 98.4808 H 0.0 **** 0.0
31854 H94 48.0297 60.5727 98.7919 H 0.0 **** 0.0
31855 H95 48.456 59.3704 97.4585 H 0.0 **** 0.0
31856 H96 49.2333 61.0494 97.5484 H 0.0 **** 0.0
31857 H97 55.3859 66.9773 97.7531 H 0.0 **** 0.0
31858 H98 60.1879 67.0728 104.858 H 0.0 **** 0.0
31859 H99 48.9771 64.1587 99.7 H 0.0 **** 0.0
31860 H100 57.0746 63.9723 100.593 H 0.0 **** 0.0
31861 H101 59.7334 64.9028 104.656 H 0.0 **** 0.0
31862 H102 49.5529 59.0062 99.945 H 0.0 **** 0.0
31863 C1 76.9591 11.4718 37.6579 C 0.0 **** 0.0
31864 C2 76.037 12.4685 38.0764 C 0.0 **** 0.0
31865 C3 75.1014 12.9691 37.2071 C 0.0 **** 0.0
31866 C4 75.0307 12.4574 35.9029 C 0.0 **** 0.0
31867 C5 75.929 11.4731 35.4717 C 0.0 **** 0.0
31868 C6 76.8926 11.0126 36.364 C 0.0 **** 0.0
31869 C7 73.9295 13.152 35.2014 C 0.0 **** 0.0
31870 C8 73.3538 14.0512 36.0936 C 0.0 **** 0.0
31871 C9 74.0618 13.9794 37.4516 C 0.0 **** 0.0
31872 C10 72.4044 15.0269 35.6771 C 0.0 **** 0.0
31873 C11 71.956 14.9271 34.2922 C 0.0 **** 0.0
31874 C12 72.3987 13.8565 33.5056 C 0.0 **** 0.0
31875 C13 73.4678 13.0091 33.883 C 0.0 **** 0.0
31876 C14 73.902 11.8645 33.0015 C 0.0 **** 0.0
31877 C15 73.1228 11.7589 31.6446 C 0.0 **** 0.0
31878 C16 71.6725 12.1919 31.8011 C 0.0 **** 0.0
31879 C17 71.6671 13.6252 32.2629 C 0.0 **** 0.0
31880 C18 70.9336 14.6748 31.6477 C 0.0 **** 0.0
31881 C19 70.7058 15.8232 32.3866 C 0.0 **** 0.0
31882 C20 70.9793 15.8298 33.8133 C 0.0 **** 0.0
31883 C21 70.4854 16.7771 34.7062 C 0.0 **** 0.0
31884 C22 71.1125 17.0559 35.9219 C 0.0 **** 0.0
31885 C23 72.0172 16.1474 36.488 C 0.0 **** 0.0
31886 C24 70.4407 17.1127 31.5959 C 0.0 **** 0.0
31887 C25 71.1888 17.1222 30.2756 C 0.0 **** 0.0
31888 C26 71.034 15.944 29.4903 C 0.0 **** 0.0
31889 C27 70.5865 14.6731 30.2035 C 0.0 **** 0.0
31890 C28 71.3019 16.0118 28.0718 C 0.0 **** 0.0
31891 C29 71.6679 17.2311 27.4942 C 0.0 **** 0.0
31892 C30 71.8638 18.3602 28.2845 C 0.0 **** 0.0
31893 C31 71.6986 18.3206 29.679 C 0.0 **** 0.0
31894 C32 72.3248 19.6427 27.6486 C 0.0 **** 0.0
31895 C33 72.6011 19.712 26.1891 C 0.0 **** 0.0
31896 C34 71.6594 18.7577 25.4362 C 0.0 **** 0.0
31897 C35 71.9392 17.334 25.9991 C 0.0 **** 0.0
31898 C36 72.0768 19.5178 30.4079 C 0.0 **** 0.0
31899 C37 72.5246 20.6755 29.8116 C 0.0 **** 0.0
31900 C38 72.5215 20.7526 28.4137 C 0.0 **** 0.0
31901 C39 70.5379 18.272 36.531 C 0.0 **** 0.0
31902 C40 69.3997 18.5873 35.6247 C 0.0 **** 0.0
31903 C41 69.4049 17.6859 34.5389 C 0.0 **** 0.0
31904 C42 68.3014 17.5912 33.7137 C 0.0 **** 0.0
31905 C43 67.2985 18.6258 33.8201 C 0.0 **** 0.0
31906 C44 67.3712 19.6189 34.8634 C 0.0 **** 0.0
31907 C45 68.373 19.5267 35.8017 C 0.0 **** 0.0
31908 C46 68.504 20.4969 36.8175 C 0.0 **** 0.0
31909 C47 67.5909 21.6007 36.8356 C 0.0 **** 0.0
31910 C48 66.5772 21.6586 35.8343 C 0.0 **** 0.0
31911 C49 66.4018 20.6582 34.8695 C 0.0 **** 0.0
31912 C50 65.4378 20.7609 33.8578 C 0.0 **** 0.0
31913 C51 65.2934 19.714 32.9151 C 0.0 **** 0.0
31914 C52 66.2579 18.7073 32.886 C 0.0 **** 0.0
31915 O53 77.9988 11.0279 38.483 O 0.0 **** 0.0
31916 C54 78.0287 10.1554 35.8486 C 0.0 **** 0.0
31917 O55 72.4929 16.3965 37.7791 O 0.0 **** 0.0
31918 C56 67.7968 22.7361 37.814 C 0.0 **** 0.0
31919 C57 66.7163 22.7154 38.8955 C 0.0 **** 0.0
31920 O58 72.8033 21.8515 30.4792 O 0.0 **** 0.0
31921 O59 71.0159 14.9719 27.1759 O 0.0 **** 0.0
31922 O60 64.4381 21.714 33.8758 O 0.0 **** 0.0
31923 H61 76.0808 12.8316 39.0859 H 0.0 **** 0.0
31924 H62 75.9883 11.2145 34.4112 H 0.0 **** 0.0
31925 H63 74.5591 14.9519 37.6553 H 0.0 **** 0.0
31926 H64 73.4235 13.6692 38.282 H 0.0 **** 0.0
31927 H65 74.9601 12.0753 32.757 H 0.0 **** 0.0
31928 H66 73.748 10.8892 33.5503 H 0.0 **** 0.0
31929 H67 73.5982 12.352 30.8074 H 0.0 **** 0.0
31930 H68 73.1327 10.6832 31.3296 H 0.0 **** 0.0
31931 H69 71.1674 12.0346 30.8167 H 0.0 **** 0.0
31932 H70 71.1624 11.5377 32.5871 H 0.0 **** 0.0
31933 H71 69.3432 17.1463 31.263 H 0.0 **** 0.0
31934 H72 69.4795 14.5985 30.1131 H 0.0 **** 0.0
31935 H73 72.3627 20.7377 25.8298 H 0.0 **** 0.0
31936 H74 73.6855 19.4701 25.9625 H 0.0 **** 0.0
31937 H75 70.5544 19.0381 25.6368 H 0.0 **** 0.0
31938 H76 71.8376 18.6852 24.3324 H 0.0 **** 0.0
31939 H77 71.2661 16.6645 25.4746 H 0.0 **** 0.0
31940 H78 72.9859 17.1067 25.8157 H 0.0 **** 0.0
31941 H79 71.9889 19.5825 31.4653 H 0.0 **** 0.0
31942 H80 72.8127 21.7278 27.9564 H 0.0 **** 0.0
31943 H81 70.1591 18.0455 37.5437 H 0.0 **** 0.0
31944 H82 71.3002 19.0437 36.5839 H 0.0 **** 0.0
31945 H83 68.1897 16.803 32.9726 H 0.0 **** 0.0
31946 H84 69.424 20.473 37.4198 H 0.0 **** 0.0
31947 H85 65.9529 22.5314 35.8091 H 0.0 **** 0.0
31948 H86 64.4714 19.7237 32.2029 H 0.0 **** 0.0
31949 H87 66.1909 17.9851 32.0737 H 0.0 **** 0.0
31950 H88 77.9845 11.4491 39.3937 H 0.0 **** 0.0
31951 H89 78.2355 9.28478 36.5216 H 0.0 **** 0.0
31952 H90 78.9274 10.8619 35.7362 H 0.0 **** 0.0
31953 H91 77.7602 9.75038 34.8649 H 0.0 **** 0.0
31954 H92 72.0354 17.1322 38.2768 H 0.0 **** 0.0
31955 H93 68.786 22.6328 38.3648 H 0.0 **** 0.0
31956 H94 66.5963 23.7228 39.3031 H 0.0 **** 0.0
31957 H95 66.9546 22.0095 39.7412 H 0.0 **** 0.0
31958 H96 65.7306 22.424 38.4652 H 0.0 **** 0.0
31959 H97 72.863 21.7368 31.4764 H 0.0 **** 0.0
31960 H98 70.4186 14.2563 27.5874 H 0.0 **** 0.0
31961 H99 63.6878 21.6297 33.1452 H 0.0 **** 0.0
31962 H100 70.7158 17.9987 32.2154 H 0.0 **** 0.0
31963 H101 71.0861 13.8066 29.6789 H 0.0 **** 0.0
31964 H102 67.859 23.7726 37.2951 H 0.0 **** 0.0
31965 C1 51.0099 69.3516 58.7337 C 0.0 **** 0.0
31966 C2 51.6971 68.8007 59.861 C 0.0 **** 0.0
31967 C3 51.0582 67.7106 60.388 C 0.0 **** 0.0
31968 C4 49.9088 67.2592 59.8164 C 0.0 **** 0.0
31969 C5 49.1477 68.1534 59.0226 C 0.0 **** 0.0
31970 C6 49.5525 69.5978 58.7969 C 0.0 **** 0.0
31971 C7 49.5206 66.0279 60.5092 C 0.0 **** 0.0
31972 C8 50.4025 65.8315 61.5398 C 0.0 **** 0.0
31973 C9 51.4532 66.9009 61.5846 C 0.0 **** 0.0
31974 C10 50.3014 64.7446 62.4156 C 0.0 **** 0.0
31975 C11 49.4163 63.6817 62.0808 C 0.0 **** 0.0
31976 C12 48.5412 63.8288 60.9836 C 0.0 **** 0.0
31977 C13 48.49 65.0307 60.25 C 0.0 **** 0.0
31978 C14 47.3761 65.2838 59.3102 C 0.0 **** 0.0
31979 C15 46.2673 64.2 59.3416 C 0.0 **** 0.0
31980 C16 46.7361 62.7576 59.4471 C 0.0 **** 0.0
31981 C17 47.7236 62.6353 60.5802 C 0.0 **** 0.0
31982 C18 48.0695 61.3853 61.0902 C 0.0 **** 0.0
31983 C19 48.8887 61.2939 62.2496 C 0.0 **** 0.0
31984 C20 49.4292 62.4532 62.8233 C 0.0 **** 0.0
31985 C21 50.0278 62.5151 64.0959 C 0.0 **** 0.0
31986 C22 50.9087 63.5352 64.3804 C 0.0 **** 0.0
31987 C23 51.1517 64.5978 63.5299 C 0.0 **** 0.0
31988 C24 49.4204 59.8963 62.5745 C 0.0 **** 0.0
31989 C25 49.8907 59.2431 61.2874 C 0.0 **** 0.0
31990 C26 48.9218 59.155 60.2569 C 0.0 **** 0.0
31991 C27 47.6597 60.0223 60.4157 C 0.0 **** 0.0
31992 C28 49.1528 58.327 59.1502 C 0.0 **** 0.0
31993 C29 50.4539 57.7348 58.9898 C 0.0 **** 0.0
31994 C30 51.4598 58.0029 59.9186 C 0.0 **** 0.0
31995 C31 51.202 58.7347 61.1159 C 0.0 **** 0.0
31996 C32 52.8002 57.3637 59.7631 C 0.0 **** 0.0
31997 C33 53.0691 56.5772 58.5189 C 0.0 **** 0.0
31998 C34 51.8483 55.8263 58.071 C 0.0 **** 0.0
31999 C35 50.6754 56.7593 57.8193 C 0.0 **** 0.0
32000 C36 52.2794 59.0127 62.0036 C 0.0 **** 0.0
32001 C37 53.55 58.4203 61.8259 C 0.0 **** 0.0
32002 C38 53.8295 57.6274 60.6923 C 0.0 **** 0.0
32003 C39 51.558 63.4336 65.7059 C 0.0 **** 0.0
32004 C40 50.9002 62.1977 66.1877 C 0.0 **** 0.0
32005 C41 50.0116 61.6956 65.2091 C 0.0 **** 0.0
32006 C42 49.1243 60.6674 65.553 C 0.0 **** 0.0
32007 C43 49.3855 59.903 66.7104 C 0.0 **** 0.0
32008 C44 50.4421 60.324 67.6017 C 0.0 **** 0.0
32009 C45 51.1244 61.546 67.3793 C 0.0 **** 0.0
32010 C46 52.002 62.0405 68.3612 C 0.0 **** 0.0
32011 C47 52.3465 61.2975 69.4988 C 0.0 **** 0.0
32012 C48 51.7683 60.0043 69.6558 C 0.0 **** 0.0
32013 C49 50.8357 59.5269 68.6928 C 0.0 **** 0.0
32014 C50 50.1175 58.3011 68.8789 C 0.0 **** 0.0
32015 C51 49.0052 57.9675 68.1053 C 0.0 **** 0.0
32016 C52 48.6289 58.7585 67.0244 C 0.0 **** 0.0
32017 O53 51.4853 68.8763 57.5265 O 0.0 **** 0.0
32018 C54 48.2138 71.8215 58.5051 C 0.0 **** 0.0
32019 O55 52.032 65.5711 63.9254 O 0.0 **** 0.0
32020 C56 52.9653 61.9587 70.7044 C 0.0 **** 0.0
32021 C57 54.4343 62.3316 70.3995 C 0.0 **** 0.0
32022 O58 54.5789 58.5385 62.8029 O 0.0 **** 0.0
32023 O59 48.1373 57.9516 58.2538 O 0.0 **** 0.0
32024 O60 50.5541 57.3399 69.806 O 0.0 **** 0.0
32025 H61 52.7025 69.0265 60.1148 H 0.0 **** 0.0
32026 H62 48.1738 67.7767 58.7788 H 0.0 **** 0.0
32027 H63 51.3955 67.5025 62.4707 H 0.0 **** 0.0
32028 H64 52.4734 66.5083 61.4743 H 0.0 **** 0.0
32029 H65 46.8766 66.2051 59.573 H 0.0 **** 0.0
32030 H66 47.7766 65.3382 58.2938 H 0.0 **** 0.0
32031 H67 45.5596 64.4318 60.1601 H 0.0 **** 0.0
32032 H68 45.7081 64.2603 58.3581 H 0.0 **** 0.0
32033 H69 45.858 62.0607 59.6136 H 0.0 **** 0.0
32034 H70 47.2708 62.4873 58.4842 H 0.0 **** 0.0
32035 H71 50.1413 59.8696 63.4235 H 0.0 **** 0.0
32036 H72 47.2639 60.1939 59.3979 H 0.0 **** 0.0
32037 H73 53.3301 57.3217 57.7482 H 0.0 **** 0.0
32038 H74 53.9634 55.908 58.6659 H 0.0 **** 0.0
32039 H75 52.1005 55.2601 57.1532 H 0.0 **** 0.0
32040 H76 51.5898 55.0704 58.7662 H 0.0 **** 0.0
32041 H77 50.8856 57.367 56.8719 H 0.0 **** 0.0
32042 H78 49.7208 56.2082 57.7127 H 0.0 **** 0.0
32043 H79 52.1967 59.7132 62.8178 H 0.0 **** 0.0
32044 H80 54.7893 57.1307 60.5778 H 0.0 **** 0.0
32045 H81 52.6483 63.3045 65.5433 H 0.0 **** 0.0
32046 H82 51.3442 64.3044 66.3275 H 0.0 **** 0.0
32047 H83 48.2765 60.4361 64.905 H 0.0 **** 0.0
32048 H84 52.3958 63.0633 68.2959 H 0.0 **** 0.0
32049 H85 51.8747 59.428 70.5914 H 0.0 **** 0.0
32050 H86 48.5212 56.973 68.1996 H 0.0 **** 0.0
32051 H87 47.9205 58.3985 66.3151 H 0.0 **** 0.0
32052 H88 52.4209 68.5814 57.5616 H 0.0 **** 0.0
32053 H89 48.2899 72.6952 59.203 H 0.0 **** 0.0
32054 H90 47.102 71.9452 58.5467 H 0.0 **** 0.0
32055 H91 48.211 72.4253 57.5341 H 0.0 **** 0.0
32056 H92 52.9641 65.3571 63.5969 H 0.0 **** 0.0
32057 H93 52.3658 62.8697 70.8804 H 0.0 **** 0.0
32058 H94 54.8882 62.816 71.3177 H 0.0 **** 0.0
32059 H95 54.476 63.0108 69.5433 H 0.0 **** 0.0
32060 H96 55.0147 61.4042 70.1219 H 0.0 **** 0.0
32061 H97 54.4482 59.192 63.5603 H 0.0 **** 0.0
32062 H98 47.1835 58.1524 58.5631 H 0.0 **** 0.0
32063 H99 51.5352 57.3366 70.0232 H 0.0 **** 0.0
32064 H100 48.5949 59.22 63.0011 H 0.0 **** 0.0
32065 H101 46.947 59.4296 61.066 H 0.0 **** 0.0
32066 H102 52.9214 61.2773 71.6406 H 0.0 **** 0.0
32067 C1 98.0726 98.0794 99.0817 C 0.0 **** 0.0
32068 C2 99.2154 97.3007 99.3445 C 0.0 **** 0.0
32069 C3 99.1713 95.9332 99.0927 C 0.0 **** 0.0
32070 C4 97.9975 95.3501 98.6688 C 0.0 **** 0.0
32071 C5 96.8887 96.1124 98.359 C 0.0 **** 0.0
32072 C6 96.9345 97.4892 98.5313 C 0.0 **** 0.0
32073 C7 98.3168 93.9442 98.311 C 0.0 **** 0.0
32074 C8 99.6974 93.7591 98.4654 C 0.0 **** 0.0
32075 C9 100.322 94.9793 99.0744 C 0.0 **** 0.0
32076 C10 100.27 92.5241 98.1622 C 0.0 **** 0.0
32077 C11 99.4706 91.5536 97.4747 C 0.0 **** 0.0
32078 C12 98.0677 91.7663 97.3418 C 0.0 **** 0.0
32079 C13 97.4661 92.927 97.8019 C 0.0 **** 0.0
32080 C14 95.9905 92.9704 98.0407 C 0.0 **** 0.0
32081 C15 95.4123 91.5781 98.3593 C 0.0 **** 0.0
32082 C16 95.7749 90.5302 97.2856 C 0.0 **** 0.0
32083 C17 97.2433 90.603 96.9197 C 0.0 **** 0.0
32084 C18 97.9006 89.6408 96.1074 C 0.0 **** 0.0
32085 C19 99.3023 89.5635 96.1054 C 0.0 **** 0.0
32086 C20 100.035 90.3656 96.9886 C 0.0 **** 0.0
32087 C21 101.235 89.9437 97.5605 C 0.0 **** 0.0
32088 C22 102.063 90.8624 98.1587 C 0.0 **** 0.0
32089 C23 101.625 92.1633 98.448 C 0.0 **** 0.0
32090 C24 99.9186 88.9306 94.9094 C 0.0 **** 0.0
32091 C25 99.3353 87.4825 94.7373 C 0.0 **** 0.0
32092 C26 97.9333 87.3603 94.9391 C 0.0 **** 0.0
32093 C27 97.1131 88.5616 95.3173 C 0.0 **** 0.0
32094 C28 97.3555 86.0488 95.022 C 0.0 **** 0.0
32095 C29 98.1313 84.9126 94.8492 C 0.0 **** 0.0
32096 C30 99.4881 85.0179 94.4829 C 0.0 **** 0.0
32097 C31 100.083 86.3155 94.4174 C 0.0 **** 0.0
32098 C32 100.192 83.8023 93.9956 C 0.0 **** 0.0
32099 C33 99.5793 82.4318 94.0429 C 0.0 **** 0.0
32100 C34 98.4109 82.3955 95.0328 C 0.0 **** 0.0
32101 C35 97.4753 83.5586 94.7947 C 0.0 **** 0.0
32102 C36 101.34 86.3871 93.8304 C 0.0 **** 0.0
32103 C37 102.08 85.2217 93.4421 C 0.0 **** 0.0
32104 C38 101.518 83.9565 93.598 C 0.0 **** 0.0
32105 C39 103.371 90.2709 98.5263 C 0.0 **** 0.0
32106 C40 103.063 88.832 98.1679 C 0.0 **** 0.0
32107 C41 101.781 88.6833 97.7068 C 0.0 **** 0.0
32108 C42 101.167 87.4505 97.5891 C 0.0 **** 0.0
32109 C43 101.977 86.3269 97.6281 C 0.0 **** 0.0
32110 C44 103.343 86.4265 97.9377 C 0.0 **** 0.0
32111 C45 103.888 87.7018 98.2677 C 0.0 **** 0.0
32112 C46 105.222 87.7553 98.7111 C 0.0 **** 0.0
32113 C47 106.037 86.6217 98.7439 C 0.0 **** 0.0
32114 C48 105.497 85.3807 98.3283 C 0.0 **** 0.0
32115 C49 104.197 85.2664 97.941 C 0.0 **** 0.0
32116 C50 103.609 84.0239 97.5285 C 0.0 **** 0.0
32117 C51 102.218 83.9167 97.3282 C 0.0 **** 0.0
32118 C52 101.405 85.0741 97.3475 C 0.0 **** 0.0
32119 O53 98.1867 99.4672 99.2974 O 0.0 **** 0.0
32120 C54 95.6949 98.2435 98.3202 C 0.0 **** 0.0
32121 O55 102.395 93.0987 99.1048 O 0.0 **** 0.0
32122 C56 107.474 86.6386 99.2097 C 0.0 **** 0.0
32123 C57 108.507 86.6327 98.1053 C 0.0 **** 0.0
32124 O58 103.377 85.3659 92.9486 O 0.0 **** 0.0
32125 O59 95.9685 85.9016 95.2675 O 0.0 **** 0.0
32126 O60 104.352 82.8237 97.4926 O 0.0 **** 0.0
32127 H61 100.119 97.7189 99.7279 H 0.0 **** 0.0
32128 H62 96.0021 95.6906 98.0048 H 0.0 **** 0.0
32129 H63 100.663 94.8786 100.145 H 0.0 **** 0.0
32130 H64 101.171 95.3277 98.4143 H 0.0 **** 0.0
32131 H65 95.8122 93.6095 98.9693 H 0.0 **** 0.0
32132 H66 95.439 93.3676 97.1621 H 0.0 **** 0.0
32133 H67 95.813 91.2183 99.3223 H 0.0 **** 0.0
32134 H68 94.2912 91.5923 98.4688 H 0.0 **** 0.0
32135 H69 95.5173 89.5434 97.7126 H 0.0 **** 0.0
32136 H70 95.1761 90.6415 96.3811 H 0.0 **** 0.0
32137 H71 99.6931 89.4981 94.0133 H 0.0 **** 0.0
32138 H72 96.5407 88.9929 94.4165 H 0.0 **** 0.0
32139 H73 99.2285 82.2304 93.0706 H 0.0 **** 0.0
32140 H74 100.344 81.6199 94.2107 H 0.0 **** 0.0
32141 H75 97.8902 81.4074 94.8649 H 0.0 **** 0.0
32142 H76 98.7648 82.5062 96.0883 H 0.0 **** 0.0
32143 H77 97.1228 83.4331 93.7672 H 0.0 **** 0.0
32144 H78 96.5294 83.4417 95.3936 H 0.0 **** 0.0
32145 H79 101.867 87.3188 93.6672 H 0.0 **** 0.0
32146 H80 102.128 83.0788 93.3763 H 0.0 **** 0.0
32147 H81 104.204 90.6873 97.9035 H 0.0 **** 0.0
32148 H82 103.561 90.3236 99.5681 H 0.0 **** 0.0
32149 H83 100.045 87.3932 97.5154 H 0.0 **** 0.0
32150 H84 105.669 88.6756 99.0891 H 0.0 **** 0.0
32151 H85 106.17 84.5023 98.2361 H 0.0 **** 0.0
32152 H86 101.744 82.9578 97.0999 H 0.0 **** 0.0
32153 H87 100.384 85.0236 97.1295 H 0.0 **** 0.0
32154 H88 97.4402 100.096 99.055 H 0.0 **** 0.0
32155 H89 95.3519 98.6345 99.3252 H 0.0 **** 0.0
32156 H90 94.8893 97.6183 97.9287 H 0.0 **** 0.0
32157 H91 95.8877 99.1011 97.6385 H 0.0 **** 0.0
32158 H92 103.393 92.8825 99.1789 H 0.0 **** 0.0
32159 H93 107.669 87.5665 99.8162 H 0.0 **** 0.0
32160 H94 109.503 86.8665 98.5416 H 0.0 **** 0.0
32161 H95 108.21 87.4077 97.3415 H 0.0 **** 0.0
32162 H96 108.571 85.6002 97.6264 H 0.0 **** 0.0
32163 H97 103.723 86.3176 92.9581 H 0.0 **** 0.0
32164 H98 95.4342 86.7115 94.9827 H 0.0 **** 0.0
32165 H99 105.237 82.8793 97.0078 H 0.0 **** 0.0
32166 H100 100.974 88.8824 94.9771 H 0.0 **** 0.0
32167 H101 96.3977 88.2044 96.0622 H 0.0 **** 0.0
32168 H102 107.661 85.8111 99.8906 H 0.0 **** 0.0
32169 C1 50.2248 7.21421 70.0631 C 0.0 **** 0.0
32170 C2 51.3141 7.91798 69.5836 C 0.0 **** 0.0
32171 C3 51.1482 9.1474 68.9816 C 0.0 **** 0.0
32172 C4 49.8884 9.69862 68.7338 C 0.0 **** 0.0
32173 C5 48.7377 9.05356 69.2058 C 0.0 **** 0.0
32174 C6 48.9116 7.80212 69.876 C 0.0 **** 0.0
32175 C7 50.1069 11.0046 68.1156 C 0.0 **** 0.0
32176 C8 51.4893 11.1833 67.9546 C 0.0 **** 0.0
32177 C9 52.2309 10.0106 68.4908 C 0.0 **** 0.0
32178 C10 52.0428 12.3345 67.4049 C 0.0 **** 0.0
32179 C11 51.1292 13.4044 67.0855 C 0.0 **** 0.0
32180 C12 49.7551 13.2774 67.3244 C 0.0 **** 0.0
32181 C13 49.2113 11.9924 67.6975 C 0.0 **** 0.0
32182 C14 47.7163 11.7647 67.6629 C 0.0 **** 0.0
32183 C15 46.8772 12.9438 67.0353 C 0.0 **** 0.0
32184 C16 47.3947 14.2981 67.553 C 0.0 **** 0.0
32185 C17 48.8895 14.4825 67.195 C 0.0 **** 0.0
32186 C18 49.5106 15.7546 66.9214 C 0.0 **** 0.0
32187 C19 50.8644 15.7998 66.5519 C 0.0 **** 0.0
32188 C20 51.6418 14.5889 66.4635 C 0.0 **** 0.0
32189 C21 52.9809 14.4981 65.9416 C 0.0 **** 0.0
32190 C22 53.8681 13.6085 66.5211 C 0.0 **** 0.0
32191 C23 53.4409 12.5126 67.2497 C 0.0 **** 0.0
32192 C24 51.4928 17.0977 66.1983 C 0.0 **** 0.0
32193 C25 50.7389 18.4114 66.5129 C 0.0 **** 0.0
32194 C26 49.3954 18.3419 66.8875 C 0.0 **** 0.0
32195 C27 48.7068 17.0149 67.2122 C 0.0 **** 0.0
32196 C28 48.6383 19.5719 66.8693 C 0.0 **** 0.0
32197 C29 49.2449 20.8226 66.6001 C 0.0 **** 0.0
32198 C30 50.6047 20.8527 66.3003 C 0.0 **** 0.0
32199 C31 51.3555 19.6569 66.2212 C 0.0 **** 0.0
32200 C32 51.2534 22.1312 65.9946 C 0.0 **** 0.0
32201 C33 50.5226 23.4141 66.1009 C 0.0 **** 0.0
32202 C34 49.088 23.2329 65.6451 C 0.0 **** 0.0
32203 C35 48.3878 22.0854 66.4253 C 0.0 **** 0.0
32204 C36 52.7516 19.7607 65.8318 C 0.0 **** 0.0
32205 C37 53.28 20.9818 65.3988 C 0.0 **** 0.0
32206 C38 52.5276 22.1511 65.4556 C 0.0 **** 0.0
32207 C39 55.2641 13.7671 65.9475 C 0.0 **** 0.0
32208 C40 55.0092 14.7024 64.8463 C 0.0 **** 0.0
32209 C41 53.6452 15.1035 64.875 C 0.0 **** 0.0
32210 C42 53.1105 15.7497 63.7462 C 0.0 **** 0.0
32211 C43 54.0323 16.1525 62.7378 C 0.0 **** 0.0
32212 C44 55.4212 15.7968 62.7448 C 0.0 **** 0.0
32213 C45 55.9234 15.0099 63.7998 C 0.0 **** 0.0
32214 C46 57.2746 14.4947 63.7819 C 0.0 **** 0.0
32215 C47 58.075 14.7082 62.6382 C 0.0 **** 0.0
32216 C48 57.5354 15.4622 61.5522 C 0.0 **** 0.0
32217 C49 56.2233 16.0059 61.5887 C 0.0 **** 0.0
32218 C50 55.7086 16.8009 60.5151 C 0.0 **** 0.0
32219 C51 54.403 17.2395 60.6294 C 0.0 **** 0.0
32220 C52 53.544 16.8355 61.6538 C 0.0 **** 0.0
32221 O53 50.3088 5.98007 70.7695 O 0.0 **** 0.0
32222 C54 47.7553 7.00571 70.353 C 0.0 **** 0.0
32223 O55 54.3587 11.6299 67.8256 O 0.0 **** 0.0
32224 C56 59.2692 13.7815 62.3736 C 0.0 **** 0.0
32225 C57 58.8899 12.8245 61.2362 C 0.0 **** 0.0
32226 O58 54.5514 21.0394 64.852 O 0.0 **** 0.0
32227 O59 47.288 19.6286 67.0757 O 0.0 **** 0.0
32228 O60 56.4002 17.1561 59.3799 O 0.0 **** 0.0
32229 H61 52.3464 7.52534 69.6981 H 0.0 **** 0.0
32230 H62 47.7242 9.50175 69.0918 H 0.0 **** 0.0
32231 H63 52.7466 9.52199 67.6279 H 0.0 **** 0.0
32232 H64 52.8844 10.3095 69.2649 H 0.0 **** 0.0
32233 H65 47.4701 10.8818 67.0643 H 0.0 **** 0.0
32234 H66 47.399 11.6589 68.7276 H 0.0 **** 0.0
32235 H67 46.9492 12.8646 65.9015 H 0.0 **** 0.0
32236 H68 45.7726 12.9137 67.239 H 0.0 **** 0.0
32237 H69 46.8286 15.141 67.0179 H 0.0 **** 0.0
32238 H70 47.336 14.3289 68.6725 H 0.0 **** 0.0
32239 H71 52.4522 17.1521 66.68 H 0.0 **** 0.0
32240 H72 48.4605 17.0359 68.2901 H 0.0 **** 0.0
32241 H73 50.451 23.6888 67.2025 H 0.0 **** 0.0
32242 H74 50.9136 24.2512 65.482 H 0.0 **** 0.0
32243 H75 48.5152 24.1497 65.8306 H 0.0 **** 0.0
32244 H76 49.0913 23.03 64.5497 H 0.0 **** 0.0
32245 H77 48.1547 22.4872 67.4011 H 0.0 **** 0.0
32246 H78 47.4378 21.8469 65.894 H 0.0 **** 0.0
32247 H79 53.4174 18.8818 65.8139 H 0.0 **** 0.0
32248 H80 53.0119 23.1286 65.1028 H 0.0 **** 0.0
32249 H81 55.8783 14.2441 66.7098 H 0.0 **** 0.0
32250 H82 55.6715 12.8415 65.4858 H 0.0 **** 0.0
32251 H83 52.0442 15.7896 63.5666 H 0.0 **** 0.0
32252 H84 57.6356 13.8155 64.5203 H 0.0 **** 0.0
32253 H85 58.1562 15.5046 60.645 H 0.0 **** 0.0
32254 H86 53.991 17.8986 59.8626 H 0.0 **** 0.0
32255 H87 52.4954 17.1659 61.6605 H 0.0 **** 0.0
32256 H88 51.2577 5.75006 70.9971 H 0.0 **** 0.0
32257 H89 47.7318 5.98593 69.9134 H 0.0 **** 0.0
32258 H90 46.7883 7.52436 70.0553 H 0.0 **** 0.0
32259 H91 47.7564 6.94833 71.4578 H 0.0 **** 0.0
32260 H92 55.3277 11.8849 67.8241 H 0.0 **** 0.0
32261 H93 60.1872 14.3005 62.1226 H 0.0 **** 0.0
32262 H94 59.7002 12.0146 61.08 H 0.0 **** 0.0
32263 H95 58.7228 13.312 60.2625 H 0.0 **** 0.0
32264 H96 57.9954 12.2672 61.5568 H 0.0 **** 0.0
32265 H97 54.9811 20.0744 64.8267 H 0.0 **** 0.0
32266 H98 46.7651 18.8437 67.4131 H 0.0 **** 0.0
32267 H99 57.1297 16.5501 59.0912 H 0.0 **** 0.0
32268 H100 51.6033 17.1556 65.0947 H 0.0 **** 0.0
32269 H101 47.7642 16.9735 66.6388 H 0.0 **** 0.0
32270 H102 59.53 13.2023 63.3336 H 0.0 **** 0.0
32271 C1 25.923 28.1506 64.7017 C 0.0 **** 0.0
32272 C2 25.9905 29.3559 63.9636 C 0.0 **** 0.0
32273 C3 26.6343 30.4437 64.5769 C 0.0 **** 0.0
32274 C4 27.2274 30.3488 65.8131 C 0.0 **** 0.0
32275 C5 27.0953 29.216 66.5918 C 0.0 **** 0.0
32276 C6 26.4246 28.1296 66.0779 C 0.0 **** 0.0
32277 C7 27.617 31.672 66.2436 C 0.0 **** 0.0
32278 C8 27.1488 32.5919 65.3188 C 0.0 **** 0.0
32279 C9 26.407 31.8959 64.2287 C 0.0 **** 0.0
32280 C10 27.3877 33.989 65.4663 C 0.0 **** 0.0
32281 C11 28.206 34.435 66.523 C 0.0 **** 0.0
32282 C12 28.8531 33.4543 67.3288 C 0.0 **** 0.0
32283 C13 28.5545 32.0517 67.1879 C 0.0 **** 0.0
32284 C14 29.3158 31.0348 67.9402 C 0.0 **** 0.0
32285 C15 30.7713 31.5101 68.1475 C 0.0 **** 0.0
32286 C16 30.8648 32.8441 68.8689 C 0.0 **** 0.0
32287 C17 29.9298 33.877 68.2765 C 0.0 **** 0.0
32288 C18 30.2202 35.2554 68.361 C 0.0 **** 0.0
32289 C19 29.696 36.1723 67.45 C 0.0 **** 0.0
32290 C20 28.5651 35.8161 66.663 C 0.0 **** 0.0
32291 C21 27.8357 36.7916 65.948 C 0.0 **** 0.0
32292 C22 27.0807 36.345 64.8326 C 0.0 **** 0.0
32293 C23 26.8085 34.9564 64.5928 C 0.0 **** 0.0
32294 C24 30.356 37.5803 67.4554 C 0.0 **** 0.0
32295 C25 31.8795 37.3885 67.6583 C 0.0 **** 0.0
32296 C26 32.2503 36.5963 68.7533 C 0.0 **** 0.0
32297 C27 31.1277 35.8201 69.4263 C 0.0 **** 0.0
32298 C28 33.6166 36.5586 69.1426 C 0.0 **** 0.0
32299 C29 34.6014 37.3415 68.4608 C 0.0 **** 0.0
32300 C30 34.1928 38.0909 67.3038 C 0.0 **** 0.0
32301 C31 32.8596 38.0808 66.8628 C 0.0 **** 0.0
32302 C32 35.2393 38.7916 66.4761 C 0.0 **** 0.0
32303 C33 36.7088 38.6714 66.9146 C 0.0 **** 0.0
32304 C34 36.8791 38.4339 68.4232 C 0.0 **** 0.0
32305 C35 36.0246 37.3046 68.9441 C 0.0 **** 0.0
32306 C36 32.5498 38.6968 65.6285 C 0.0 **** 0.0
32307 C37 33.564 39.3522 64.8305 C 0.0 **** 0.0
32308 C38 34.8686 39.445 65.3089 C 0.0 **** 0.0
32309 C39 26.287 37.5016 64.2352 C 0.0 **** 0.0
32310 C40 26.7675 38.6327 65.0887 C 0.0 **** 0.0
32311 C41 27.5152 38.1349 66.1665 C 0.0 **** 0.0
32312 C42 27.6725 38.9132 67.3365 C 0.0 **** 0.0
32313 C43 27.3398 40.2517 67.293 C 0.0 **** 0.0
32314 C44 26.6801 40.8184 66.1488 C 0.0 **** 0.0
32315 C45 26.3419 39.9808 65.046 C 0.0 **** 0.0
32316 C46 25.5605 40.4807 63.9915 C 0.0 **** 0.0
32317 C47 25.1299 41.8222 64.0204 C 0.0 **** 0.0
32318 C48 25.5376 42.6775 65.0546 C 0.0 **** 0.0
32319 C49 26.2807 42.1641 66.1415 C 0.0 **** 0.0
32320 C50 26.4815 42.9323 67.3352 C 0.0 **** 0.0
32321 C51 27.1778 42.3949 68.4228 C 0.0 **** 0.0
32322 C52 27.6186 41.0756 68.3797 C 0.0 **** 0.0
32323 O53 25.1952 27.0451 64.2524 O 0.0 **** 0.0
32324 C54 26.1573 26.9742 66.996 C 0.0 **** 0.0
32325 O55 25.9686 34.5235 63.5256 O 0.0 **** 0.0
32326 C56 24.1311 42.2903 62.976 C 0.0 **** 0.0
32327 C57 22.7607 41.6921 63.2852 C 0.0 **** 0.0
32328 O58 33.3333 39.8545 63.5446 O 0.0 **** 0.0
32329 O59 34.0814 35.927 70.3374 O 0.0 **** 0.0
32330 O60 26.0663 44.2429 67.506 O 0.0 **** 0.0
32331 H61 25.5766 29.4466 62.9639 H 0.0 **** 0.0
32332 H62 27.3778 29.2776 67.589 H 0.0 **** 0.0
32333 H63 25.3397 32.1674 64.246 H 0.0 **** 0.0
32334 H64 26.891 32.0268 63.2165 H 0.0 **** 0.0
32335 H65 28.8435 30.9679 68.9184 H 0.0 **** 0.0
32336 H66 29.3716 30.0696 67.4012 H 0.0 **** 0.0
32337 H67 31.3487 30.7165 68.6511 H 0.0 **** 0.0
32338 H68 31.262 31.6651 67.1747 H 0.0 **** 0.0
32339 H69 30.6849 32.7517 69.9423 H 0.0 **** 0.0
32340 H70 31.9089 33.2139 68.7137 H 0.0 **** 0.0
32341 H71 30.0661 38.12 66.5859 H 0.0 **** 0.0
32342 H72 31.4854 35.0458 70.1583 H 0.0 **** 0.0
32343 H73 37.0941 37.7881 66.3207 H 0.0 **** 0.0
32344 H74 37.3338 39.5502 66.5816 H 0.0 **** 0.0
32345 H75 37.9404 38.1034 68.5838 H 0.0 **** 0.0
32346 H76 36.5827 39.3387 68.9329 H 0.0 **** 0.0
32347 H77 36.4752 36.3667 68.5719 H 0.0 **** 0.0
32348 H78 36.0433 37.3733 70.0717 H 0.0 **** 0.0
32349 H79 31.549 38.6096 65.1958 H 0.0 **** 0.0
32350 H80 35.6085 39.9387 64.6845 H 0.0 **** 0.0
32351 H81 26.5692 37.692 63.1357 H 0.0 **** 0.0
32352 H82 25.1774 37.423 64.2839 H 0.0 **** 0.0
32353 H83 28.0345 38.4805 68.2261 H 0.0 **** 0.0
32354 H84 25.3099 39.8389 63.1461 H 0.0 **** 0.0
32355 H85 25.1739 43.6777 65.0536 H 0.0 **** 0.0
32356 H86 27.2851 42.8983 69.3455 H 0.0 **** 0.0
32357 H87 28.1129 40.6873 69.2442 H 0.0 **** 0.0
32358 H88 24.7626 27.2484 63.3387 H 0.0 **** 0.0
32359 H89 25.4843 27.3491 67.7734 H 0.0 **** 0.0
32360 H90 27.0685 26.6803 67.6094 H 0.0 **** 0.0
32361 H91 25.7019 26.1041 66.4755 H 0.0 **** 0.0
32362 H92 25.2347 35.1709 63.3036 H 0.0 **** 0.0
32363 H93 23.9864 43.3983 63.0303 H 0.0 **** 0.0
32364 H94 22.0526 42.099 62.5308 H 0.0 **** 0.0
32365 H95 22.389 41.9075 64.3067 H 0.0 **** 0.0
32366 H96 22.7486 40.5861 63.1108 H 0.0 **** 0.0
32367 H97 32.3463 39.866 63.2361 H 0.0 **** 0.0
32368 H98 33.3617 35.6125 70.973 H 0.0 **** 0.0
32369 H99 25.391 44.5998 66.8267 H 0.0 **** 0.0
32370 H100 30.1014 38.2546 68.3272 H 0.0 **** 0.0
32371 H101 30.5175 36.5613 70.0017 H 0.0 **** 0.0
32372 H102 24.5043 42.0197 61.9888 H 0.0 **** 0.0
32373 C1 79.251 91.7194 83.3397 C 0.0 **** 0.0
32374 C2 78.5857 90.9576 82.3446 C 0.0 **** 0.0
32375 C3 79.0633 90.9056 81.0475 C 0.0 **** 0.0
32376 C4 80.2036 91.5911 80.7247 C 0.0 **** 0.0
32377 C5 80.9401 92.343 81.6836 C 0.0 **** 0.0
32378 C6 80.4906 92.332 83.0283 C 0.0 **** 0.0
32379 C7 80.4201 91.4423 79.2792 C 0.0 **** 0.0
32380 C8 79.4467 90.5498 78.8409 C 0.0 **** 0.0
32381 C9 78.491 90.143 79.9219 C 0.0 **** 0.0
32382 C10 79.2967 90.2776 77.467 C 0.0 **** 0.0
32383 C11 80.2694 90.7977 76.5602 C 0.0 **** 0.0
32384 C12 81.3669 91.5512 77.0366 C 0.0 **** 0.0
32385 C13 81.3422 92.0195 78.3804 C 0.0 **** 0.0
32386 C14 82.2559 93.1488 78.7904 C 0.0 **** 0.0
32387 C15 82.7438 93.9554 77.6025 C 0.0 **** 0.0
32388 C16 83.3525 93.0373 76.5201 C 0.0 **** 0.0
32389 C17 82.4115 91.9292 76.1065 C 0.0 **** 0.0
32390 C18 82.4552 91.2241 74.8386 C 0.0 **** 0.0
32391 C19 81.3151 90.5247 74.4008 C 0.0 **** 0.0
32392 C20 80.134 90.5434 75.1674 C 0.0 **** 0.0
32393 C21 78.8819 90.0115 74.671 C 0.0 **** 0.0
32394 C22 78.0856 89.3565 75.5616 C 0.0 **** 0.0
32395 C23 78.2375 89.4601 76.958 C 0.0 **** 0.0
32396 C24 81.4305 89.5063 73.2828 C 0.0 **** 0.0
32397 C25 82.8097 89.3063 72.6704 C 0.0 **** 0.0
32398 C26 83.9109 90.1442 73.0292 C 0.0 **** 0.0
32399 C27 83.7768 91.2581 74.0769 C 0.0 **** 0.0
32400 C28 85.1916 89.8878 72.4453 C 0.0 **** 0.0
32401 C29 85.3401 88.824 71.5102 C 0.0 **** 0.0
32402 C30 84.2053 88.1205 71.0967 C 0.0 **** 0.0
32403 C31 83.0065 88.2392 71.768 C 0.0 **** 0.0
32404 C32 84.2736 87.2142 69.9077 C 0.0 **** 0.0
32405 C33 85.5139 87.2494 68.9779 C 0.0 **** 0.0
32406 C34 86.604 88.2276 69.4429 C 0.0 **** 0.0
32407 C35 86.6672 88.3271 70.9448 C 0.0 **** 0.0
32408 C36 81.9404 87.347 71.4286 C 0.0 **** 0.0
32409 C37 82.1016 86.3647 70.4704 C 0.0 **** 0.0
32410 C38 83.2499 86.3033 69.7213 C 0.0 **** 0.0
32411 C39 76.8983 88.7273 74.8829 C 0.0 **** 0.0
32412 C40 77.0472 89.2348 73.4657 C 0.0 **** 0.0
32413 C41 78.205 90.0599 73.4088 C 0.0 **** 0.0
32414 C42 78.4245 90.8021 72.2366 C 0.0 **** 0.0
32415 C43 77.6565 90.5113 71.0826 C 0.0 **** 0.0
32416 C44 76.5719 89.6079 71.1142 C 0.0 **** 0.0
32417 C45 76.2564 88.9508 72.3298 C 0.0 **** 0.0
32418 C46 75.2351 88.049 72.3869 C 0.0 **** 0.0
32419 C47 74.4753 87.7364 71.234 C 0.0 **** 0.0
32420 C48 74.7676 88.3835 70.0103 C 0.0 **** 0.0
32421 C49 75.747 89.37 69.9837 C 0.0 **** 0.0
32422 C50 76.0527 90.1003 68.7788 C 0.0 **** 0.0
32423 C51 77.1047 90.9731 68.7418 C 0.0 **** 0.0
32424 C52 77.9433 91.1187 69.8682 C 0.0 **** 0.0
32425 O53 78.7222 91.773 84.6072 O 0.0 **** 0.0
32426 C54 81.2769 93.1208 84.0863 C 0.0 **** 0.0
32427 O55 77.4907 88.6653 77.8372 O 0.0 **** 0.0
32428 C56 73.3867 86.7018 71.3085 C 0.0 **** 0.0
32429 C57 72.0531 87.2636 71.8829 C 0.0 **** 0.0
32430 O58 81.0491 85.4904 70.1932 O 0.0 **** 0.0
32431 O59 86.3433 90.5898 72.7752 O 0.0 **** 0.0
32432 O60 75.3052 89.9497 67.5917 O 0.0 **** 0.0
32433 H61 77.6965 90.3794 82.6457 H 0.0 **** 0.0
32434 H62 81.7876 92.8731 81.4037 H 0.0 **** 0.0
32435 H63 77.445 90.4769 79.7149 H 0.0 **** 0.0
32436 H64 78.5449 89.0369 80.1149 H 0.0 **** 0.0
32437 H65 81.7741 93.8709 79.4915 H 0.0 **** 0.0
32438 H66 83.1339 92.6731 79.2811 H 0.0 **** 0.0
32439 H67 81.8543 94.4671 77.1235 H 0.0 **** 0.0
32440 H68 83.5354 94.6993 77.9858 H 0.0 **** 0.0
32441 H69 83.535 93.6603 75.6283 H 0.0 **** 0.0
32442 H70 84.2522 92.527 76.891 H 0.0 **** 0.0
32443 H71 81.1543 88.5375 73.7637 H 0.0 **** 0.0
32444 H72 84.5326 91.1217 74.8861 H 0.0 **** 0.0
32445 H73 85.9685 86.2261 68.984 H 0.0 **** 0.0
32446 H74 85.1419 87.5518 67.95 H 0.0 **** 0.0
32447 H75 87.5935 87.9484 69.1141 H 0.0 **** 0.0
32448 H76 86.3664 89.2666 69.0408 H 0.0 **** 0.0
32449 H77 86.8355 87.335 71.3901 H 0.0 **** 0.0
32450 H78 87.4823 89.0685 71.2159 H 0.0 **** 0.0
32451 H79 80.9561 87.4662 71.8791 H 0.0 **** 0.0
32452 H80 83.3083 85.5808 68.9254 H 0.0 **** 0.0
32453 H81 76.9088 87.5953 74.9646 H 0.0 **** 0.0
32454 H82 76.0063 89.1407 75.312 H 0.0 **** 0.0
32455 H83 79.193 91.5476 72.2023 H 0.0 **** 0.0
32456 H84 74.9306 87.6805 73.3591 H 0.0 **** 0.0
32457 H85 74.1648 88.1034 69.1338 H 0.0 **** 0.0
32458 H86 77.2765 91.5426 67.8837 H 0.0 **** 0.0
32459 H87 78.7453 91.8496 69.815 H 0.0 **** 0.0
32460 H88 77.9325 91.1792 84.6982 H 0.0 **** 0.0
32461 H89 81.7091 94.0532 83.595 H 0.0 **** 0.0
32462 H90 82.1309 92.4898 84.4141 H 0.0 **** 0.0
32463 H91 80.6977 93.3586 84.999 H 0.0 **** 0.0
32464 H92 77.183 87.7761 77.4046 H 0.0 **** 0.0
32465 H93 73.2359 86.2447 70.3141 H 0.0 **** 0.0
32466 H94 71.3137 86.4156 71.9779 H 0.0 **** 0.0
32467 H95 71.6666 88.0171 71.2339 H 0.0 **** 0.0
32468 H96 72.1942 87.7444 72.8714 H 0.0 **** 0.0
32469 H97 80.1812 85.6293 70.7599 H 0.0 **** 0.0
32470 H98 86.2269 91.2799 73.4574 H 0.0 **** 0.0
32471 H99 74.305 89.7503 67.7147 H 0.0 **** 0.0
32472 H100 80.7629 89.7676 72.4573 H 0.0 **** 0.0
32473 H101 83.9537 92.2384 73.5888 H 0.0 **** 0.0
32474 H102 73.715 85.9127 71.9071 H 0.0 **** 0.0
32475 C1 57.1265 51.6668 28.8429 C 0.0 **** 0.0
32476 C2 57.069 51.038 30.0955 C 0.0 **** 0.0
32477 C3 57.3802 49.7059 30.2602 C 0.0 **** 0.0
32478 C4 57.8237 48.9204 29.218 C 0.0 **** 0.0
32479 C5 57.9215 49.5124 27.9311 C 0.0 **** 0.0
32480 C6 57.4428 50.816 27.7327 C 0.0 **** 0.0
32481 C7 58.1382 47.5798 29.7126 C 0.0 **** 0.0
32482 C8 57.7643 47.5623 31.0611 C 0.0 **** 0.0
32483 C9 57.3089 48.9092 31.5109 C 0.0 **** 0.0
32484 C10 57.8482 46.4251 31.8494 C 0.0 **** 0.0
32485 C11 58.3111 45.2213 31.21 C 0.0 **** 0.0
32486 C12 58.6896 45.1977 29.8743 C 0.0 **** 0.0
32487 C13 58.5741 46.3853 29.1019 C 0.0 **** 0.0
32488 C14 59.0213 46.3827 27.6155 C 0.0 **** 0.0
32489 C15 59.1052 45.0046 27.0377 C 0.0 **** 0.0
32490 C16 59.787 43.9587 27.9089 C 0.0 **** 0.0
32491 C17 59.1659 43.9351 29.2625 C 0.0 **** 0.0
32492 C18 58.9236 42.7559 29.9382 C 0.0 **** 0.0
32493 C19 58.359 42.7802 31.1996 C 0.0 **** 0.0
32494 C20 58.2304 44.0084 31.9086 C 0.0 **** 0.0
32495 C21 58.113 44.0617 33.2778 C 0.0 **** 0.0
32496 C22 57.6033 45.1256 33.9269 C 0.0 **** 0.0
32497 C23 57.4372 46.3581 33.2416 C 0.0 **** 0.0
32498 C24 57.5945 41.5213 31.6578 C 0.0 **** 0.0
32499 C25 58.3419 40.2537 31.4685 C 0.0 **** 0.0
32500 C26 59.1137 40.1625 30.2786 C 0.0 **** 0.0
32501 C27 59.388 41.3785 29.3848 C 0.0 **** 0.0
32502 C28 59.5895 38.8972 29.8435 C 0.0 **** 0.0
32503 C29 59.1563 37.7113 30.4634 C 0.0 **** 0.0
32504 C30 58.404 37.7883 31.6719 C 0.0 **** 0.0
32505 C31 58.0152 39.0774 32.2108 C 0.0 **** 0.0
32506 C32 57.925 36.5835 32.3631 C 0.0 **** 0.0
32507 C33 58.2727 35.211 31.7595 C 0.0 **** 0.0
32508 C34 58.3921 35.3365 30.2323 C 0.0 **** 0.0
32509 C35 59.4902 36.3276 29.8898 C 0.0 **** 0.0
32510 C36 57.3027 39.1188 33.4413 C 0.0 **** 0.0
32511 C37 56.8655 37.9358 34.0537 C 0.0 **** 0.0
32512 C38 57.2197 36.707 33.5545 C 0.0 **** 0.0
32513 C39 57.3492 44.7964 35.382 C 0.0 **** 0.0
32514 C40 58.0194 43.4511 35.51 C 0.0 **** 0.0
32515 C41 58.5192 43.1036 34.2531 C 0.0 **** 0.0
32516 C42 59.4 42.0337 34.1541 C 0.0 **** 0.0
32517 C43 59.7027 41.2549 35.2737 C 0.0 **** 0.0
32518 C44 59.05 41.5039 36.5219 C 0.0 **** 0.0
32519 C45 58.1794 42.6172 36.6579 C 0.0 **** 0.0
32520 C46 57.5073 42.8363 37.8636 C 0.0 **** 0.0
32521 C47 57.5669 41.8826 38.9064 C 0.0 **** 0.0
32522 C48 58.4263 40.7871 38.7934 C 0.0 **** 0.0
32523 C49 59.2268 40.6136 37.6097 C 0.0 **** 0.0
32524 C50 59.9678 39.4599 37.3883 C 0.0 **** 0.0
32525 C51 60.6865 39.2456 36.2005 C 0.0 **** 0.0
32526 C52 60.4767 40.124 35.118 C 0.0 **** 0.0
32527 O53 56.6617 52.9756 28.5896 O 0.0 **** 0.0
32528 C54 57.4431 51.4231 26.3782 C 0.0 **** 0.0
32529 O55 56.8445 47.4746 33.8955 O 0.0 **** 0.0
32530 C56 56.5269 41.9374 40.0756 C 0.0 **** 0.0
32531 C57 56.676 43.1117 41.0516 C 0.0 **** 0.0
32532 O58 56.0603 38.0934 35.1932 O 0.0 **** 0.0
32533 O59 60.412 38.7364 28.7034 O 0.0 **** 0.0
32534 O60 59.8693 38.4035 38.2884 O 0.0 **** 0.0
32535 H61 56.6902 51.6077 30.9585 H 0.0 **** 0.0
32536 H62 58.3665 49.0055 27.0924 H 0.0 **** 0.0
32537 H63 56.2589 48.7654 31.8793 H 0.0 **** 0.0
32538 H64 58.0283 49.3257 32.2038 H 0.0 **** 0.0
32539 H65 58.2487 46.9209 27.0668 H 0.0 **** 0.0
32540 H66 60.0238 46.7934 27.5786 H 0.0 **** 0.0
32541 H67 58.1078 44.6322 26.7218 H 0.0 **** 0.0
32542 H68 59.6763 45.1212 26.0643 H 0.0 **** 0.0
32543 H69 59.6221 42.9803 27.3828 H 0.0 **** 0.0
32544 H70 60.8995 44.1098 27.9729 H 0.0 **** 0.0
32545 H71 57.1267 41.6457 32.6759 H 0.0 **** 0.0
32546 H72 60.5053 41.4738 29.3364 H 0.0 **** 0.0
32547 H73 59.2331 34.8608 32.1629 H 0.0 **** 0.0
32548 H74 57.5764 34.4469 32.1058 H 0.0 **** 0.0
32549 H75 58.5627 34.3322 29.8064 H 0.0 **** 0.0
32550 H76 57.3758 35.6045 29.8311 H 0.0 **** 0.0
32551 H77 60.425 35.9706 30.3659 H 0.0 **** 0.0
32552 H78 59.6025 36.3364 28.8142 H 0.0 **** 0.0
32553 H79 57.0598 40.034 33.9391 H 0.0 **** 0.0
32554 H80 56.8192 35.8073 34.0102 H 0.0 **** 0.0
32555 H81 57.835 45.4801 36.0801 H 0.0 **** 0.0
32556 H82 56.2571 44.7327 35.5447 H 0.0 **** 0.0
32557 H83 59.8191 41.7701 33.1741 H 0.0 **** 0.0
32558 H84 56.7355 43.6148 37.8523 H 0.0 **** 0.0
32559 H85 58.3506 40.001 39.5052 H 0.0 **** 0.0
32560 H86 61.4235 38.4523 36.0999 H 0.0 **** 0.0
32561 H87 60.9761 39.8753 34.1671 H 0.0 **** 0.0
32562 H88 56.4047 53.4868 29.3804 H 0.0 **** 0.0
32563 H89 57.9983 50.7115 25.6901 H 0.0 **** 0.0
32564 H90 58.0271 52.3738 26.2983 H 0.0 **** 0.0
32565 H91 56.4141 51.6734 26.0017 H 0.0 **** 0.0
32566 H92 56.6111 47.2744 34.8618 H 0.0 **** 0.0
32567 H93 55.4759 42.0566 39.688 H 0.0 **** 0.0
32568 H94 56.2327 44.0288 40.6268 H 0.0 **** 0.0
32569 H95 57.7719 43.3281 41.1615 H 0.0 **** 0.0
32570 H96 56.2262 42.9225 42.0303 H 0.0 **** 0.0
32571 H97 55.7209 37.1942 35.5599 H 0.0 **** 0.0
32572 H98 60.8669 39.5435 28.3232 H 0.0 **** 0.0
32573 H99 60.379 37.6034 37.972 H 0.0 **** 0.0
32574 H100 56.7565 41.4831 31.0008 H 0.0 **** 0.0
32575 H101 58.9504 41.1746 28.394 H 0.0 **** 0.0
32576 H102 56.5728 41.0015 40.7031 H 0.0 **** 0.0
32577 C1 73.6412 32.871 14.6124 C 0.0 **** 0.0
32578 C2 72.4072 32.2762 14.9581 C 0.0 **** 0.0
32579 C3 71.8617 32.5124 16.2175 C 0.0 **** 0.0
32580 C4 72.4795 33.34 17.1681 C 0.0 **** 0.0
32581 C5 73.7979 33.7825 16.8951 C 0.0 **** 0.0
32582 C6 74.4078 33.5089 15.6612 C 0.0 **** 0.0
32583 C7 71.5033 33.7315 18.2161 C 0.0 **** 0.0
32584 C8 70.2883 33.1668 17.8072 C 0.0 **** 0.0
32585 C9 70.4246 32.3401 16.5417 C 0.0 **** 0.0
32586 C10 69.0725 33.4433 18.5071 C 0.0 **** 0.0
32587 C11 69.191 34.1558 19.7217 C 0.0 **** 0.0
32588 C12 70.4225 34.7053 20.1554 C 0.0 **** 0.0
32589 C13 71.6039 34.4736 19.4073 C 0.0 **** 0.0
32590 C14 72.9511 34.9934 19.9061 C 0.0 **** 0.0
32591 C15 72.9494 35.7475 21.2868 C 0.0 **** 0.0
32592 C16 71.5646 36.4889 21.5543 C 0.0 **** 0.0
32593 C17 70.4568 35.5 21.4427 C 0.0 **** 0.0
32594 C18 69.438 35.246 22.4153 C 0.0 **** 0.0
32595 C19 68.2466 34.6199 21.9887 C 0.0 **** 0.0
32596 C20 68.0591 34.3106 20.5814 C 0.0 **** 0.0
32597 C21 66.7955 34.0047 20.0145 C 0.0 **** 0.0
32598 C22 66.7149 33.2343 18.8731 C 0.0 **** 0.0
32599 C23 67.8211 32.9657 18.0544 C 0.0 **** 0.0
32600 C24 67.2638 34.0494 22.9698 C 0.0 **** 0.0
32601 C25 67.8411 33.7144 24.3422 C 0.0 **** 0.0
32602 C26 68.9661 34.4385 24.7509 C 0.0 **** 0.0
32603 C27 69.6305 35.5047 23.8756 C 0.0 **** 0.0
32604 C28 69.509 34.1075 26.0287 C 0.0 **** 0.0
32605 C29 68.9391 33.111 26.8307 C 0.0 **** 0.0
32606 C30 67.7004 32.5744 26.5002 C 0.0 **** 0.0
32607 C31 67.1399 32.859 25.2271 C 0.0 **** 0.0
32608 C32 67.0135 31.61 27.4405 C 0.0 **** 0.0
32609 C33 67.6576 31.2696 28.7742 C 0.0 **** 0.0
32610 C34 69.18 31.3463 28.6462 C 0.0 **** 0.0
32611 C35 69.6663 32.6899 28.1192 C 0.0 **** 0.0
32612 C36 65.8858 32.2683 24.9226 C 0.0 **** 0.0
32613 C37 65.2362 31.3614 25.8036 C 0.0 **** 0.0
32614 C38 65.7806 31.0325 27.0757 C 0.0 **** 0.0
32615 C39 65.2748 32.9583 18.5289 C 0.0 **** 0.0
32616 C40 64.6077 33.7608 19.5452 C 0.0 **** 0.0
32617 C41 65.5044 34.414 20.3716 C 0.0 **** 0.0
32618 C42 65.0359 35.4355 21.2447 C 0.0 **** 0.0
32619 C43 63.6739 35.619 21.366 C 0.0 **** 0.0
32620 C44 62.751 34.8051 20.6745 C 0.0 **** 0.0
32621 C45 63.2261 33.9013 19.7111 C 0.0 **** 0.0
32622 C46 62.3189 33.1297 18.9267 C 0.0 **** 0.0
32623 C47 60.9302 33.2491 19.1613 C 0.0 **** 0.0
32624 C48 60.4652 34.223 20.0674 C 0.0 **** 0.0
32625 C49 61.3682 35.0118 20.8324 C 0.0 **** 0.0
32626 C50 60.8806 35.9941 21.752 C 0.0 **** 0.0
32627 C51 61.7892 36.8106 22.4037 C 0.0 **** 0.0
32628 C52 63.1792 36.6176 22.1842 C 0.0 **** 0.0
32629 O53 74.1868 32.7765 13.3067 O 0.0 **** 0.0
32630 C54 75.8869 33.8281 15.3942 C 0.0 **** 0.0
32631 O55 67.684 32.2172 16.8589 O 0.0 **** 0.0
32632 C56 59.9644 32.413 18.373 C 0.0 **** 0.0
32633 C57 60.1867 30.9878 18.7501 C 0.0 **** 0.0
32634 O58 64.0124 30.8234 25.3975 O 0.0 **** 0.0
32635 O59 70.5733 34.8723 26.6012 O 0.0 **** 0.0
32636 O60 59.5526 36.1535 22.1162 O 0.0 **** 0.0
32637 H61 71.8968 31.6675 14.2511 H 0.0 **** 0.0
32638 H62 74.3843 34.393 17.5521 H 0.0 **** 0.0
32639 H63 70.2703 31.249 16.7771 H 0.0 **** 0.0
32640 H64 69.7886 32.7234 15.6816 H 0.0 **** 0.0
32641 H65 73.6681 34.1806 19.9885 H 0.0 **** 0.0
32642 H66 73.326 35.7333 19.1181 H 0.0 **** 0.0
32643 H67 73.1524 34.9756 22.0452 H 0.0 **** 0.0
32644 H68 73.7726 36.4543 21.3349 H 0.0 **** 0.0
32645 H69 71.5367 36.8992 22.5437 H 0.0 **** 0.0
32646 H70 71.4047 37.2978 20.7852 H 0.0 **** 0.0
32647 H71 66.5357 34.8254 23.1627 H 0.0 **** 0.0
32648 H72 69.2273 36.4966 24.2621 H 0.0 **** 0.0
32649 H73 67.3951 31.9572 29.612 H 0.0 **** 0.0
32650 H74 67.4117 30.2078 29.014 H 0.0 **** 0.0
32651 H75 69.6898 31.1891 29.6525 H 0.0 **** 0.0
32652 H76 69.6042 30.5064 28.0347 H 0.0 **** 0.0
32653 H77 69.5609 33.5201 28.8434 H 0.0 **** 0.0
32654 H78 70.7676 32.5377 27.8627 H 0.0 **** 0.0
32655 H79 65.3275 32.5835 24.054 H 0.0 **** 0.0
32656 H80 65.2198 30.3422 27.7309 H 0.0 **** 0.0
32657 H81 65.0157 33.3885 17.5353 H 0.0 **** 0.0
32658 H82 65.0738 31.8325 18.5754 H 0.0 **** 0.0
32659 H83 65.6604 36.1411 21.7673 H 0.0 **** 0.0
32660 H84 62.6178 32.4108 18.1995 H 0.0 **** 0.0
32661 H85 59.4107 34.4798 20.0142 H 0.0 **** 0.0
32662 H86 61.4859 37.5549 23.1162 H 0.0 **** 0.0
32663 H87 63.8928 37.268 22.6838 H 0.0 **** 0.0
32664 H88 73.5859 32.3513 12.6599 H 0.0 **** 0.0
32665 H89 76.5262 33.3398 16.1487 H 0.0 **** 0.0
32666 H90 75.9336 34.9074 15.4494 H 0.0 **** 0.0
32667 H91 76.2284 33.4449 14.4073 H 0.0 **** 0.0
32668 H92 66.7655 31.8708 16.6497 H 0.0 **** 0.0
32669 H93 58.9354 32.6709 18.6523 H 0.0 **** 0.0
32670 H94 59.474 30.347 18.197 H 0.0 **** 0.0
32671 H95 60.1857 30.8443 19.8662 H 0.0 **** 0.0
32672 H96 61.1511 30.6929 18.4025 H 0.0 **** 0.0
32673 H97 63.6077 30.2754 26.1558 H 0.0 **** 0.0
32674 H98 70.999 35.6805 26.1227 H 0.0 **** 0.0
32675 H99 58.9491 35.4754 21.7454 H 0.0 **** 0.0
32676 H100 66.7367 33.2231 22.5166 H 0.0 **** 0.0
32677 H101 70.7048 35.4804 24.0503 H 0.0 **** 0.0
32678 H102 60.0342 32.5359 17.2654 H 0.0 **** 0.0
32679 C1 26.8318 96.6181 32.6454 C 0.0 **** 0.0
32680 C2 28.0266 95.938 32.4529 C 0.0 **** 0.0
32681 C3 29.0237 96.5526 31.6889 C 0.0 **** 0.0
32682 C4 28.8979 97.8407 31.1878 C 0.0 **** 0.0
32683 C5 27.8021 98.6298 31.6033 C 0.0 **** 0.0
32684 C6 26.7027 97.9422 32.1864 C 0.0 **** 0.0
32685 C7 30.1572 98.2373 30.4857 C 0.0 **** 0.0
32686 C8 31.0632 97.1998 30.6308 C 0.0 **** 0.0
32687 C9 30.4092 96.0272 31.3782 C 0.0 **** 0.0
32688 C10 32.3378 97.2317 30.0391 C 0.0 **** 0.0
32689 C11 32.704 98.359 29.302 C 0.0 **** 0.0
32690 C12 31.7735 99.441 29.1273 C 0.0 **** 0.0
32691 C13 30.4625 99.417 29.7565 C 0.0 **** 0.0
32692 C14 29.5862 100.615 29.6402 C 0.0 **** 0.0
32693 C15 29.795 101.505 28.442 C 0.0 **** 0.0
32694 C16 31.2535 101.897 28.3013 C 0.0 **** 0.0
32695 C17 32.2245 100.684 28.4099 C 0.0 **** 0.0
32696 C18 33.5922 100.75 28.0024 C 0.0 **** 0.0
32697 C19 34.4653 99.6663 28.235 C 0.0 **** 0.0
32698 C20 33.9723 98.405 28.6385 C 0.0 **** 0.0
32699 C21 34.7116 97.206 28.5404 C 0.0 **** 0.0
32700 C22 34.4069 96.1111 29.3118 C 0.0 **** 0.0
32701 C23 33.2878 96.1723 30.1741 C 0.0 **** 0.0
32702 C24 35.8729 100.029 28.5661 C 0.0 **** 0.0
32703 C25 36.4212 100.941 27.5094 C 0.0 **** 0.0
32704 C26 35.5591 101.955 26.9718 C 0.0 **** 0.0
32705 C27 34.067 101.938 27.2441 C 0.0 **** 0.0
32706 C28 36.1325 102.974 26.1547 C 0.0 **** 0.0
32707 C29 37.433 102.89 25.7353 C 0.0 **** 0.0
32708 C30 38.3147 101.962 26.3243 C 0.0 **** 0.0
32709 C31 37.8387 100.97 27.2169 C 0.0 **** 0.0
32710 C32 39.7641 102.061 26.0731 C 0.0 **** 0.0
32711 C33 40.3168 103.044 25.1069 C 0.0 **** 0.0
32712 C34 39.2454 103.427 24.0862 C 0.0 **** 0.0
32713 C35 37.9242 103.838 24.7165 C 0.0 **** 0.0
32714 C36 38.8173 100.113 27.8367 C 0.0 **** 0.0
32715 C37 40.1925 100.198 27.5713 C 0.0 **** 0.0
32716 C38 40.6244 101.133 26.6592 C 0.0 **** 0.0
32717 C39 35.3015 94.9199 28.971 C 0.0 **** 0.0
32718 C40 36.0845 95.4954 27.8707 C 0.0 **** 0.0
32719 C41 35.7136 96.8257 27.6547 C 0.0 **** 0.0
32720 C42 36.2607 97.5251 26.5615 C 0.0 **** 0.0
32721 C43 37.2713 96.935 25.8192 C 0.0 **** 0.0
32722 C44 37.623 95.602 26.0257 C 0.0 **** 0.0
32723 C45 37.0498 94.8582 27.0792 C 0.0 **** 0.0
32724 C46 37.3479 93.4859 27.2386 C 0.0 **** 0.0
32725 C47 38.2706 92.8571 26.3681 C 0.0 **** 0.0
32726 C48 38.8556 93.6018 25.36 C 0.0 **** 0.0
32727 C49 38.6313 94.9842 25.2263 C 0.0 **** 0.0
32728 C50 39.3317 95.781 24.3041 C 0.0 **** 0.0
32729 C51 38.9667 97.1354 24.0943 C 0.0 **** 0.0
32730 C52 37.9227 97.6863 24.8516 C 0.0 **** 0.0
32731 O53 25.7614 96.0043 33.2691 O 0.0 **** 0.0
32732 C54 25.4429 98.7102 32.5662 C 0.0 **** 0.0
32733 O55 33.0686 95.1926 31.1252 O 0.0 **** 0.0
32734 C56 38.7 91.4318 26.6382 C 0.0 **** 0.0
32735 C57 39.4504 91.3717 27.9729 C 0.0 **** 0.0
32736 O58 41.0847 99.2755 28.1178 O 0.0 **** 0.0
32737 O59 35.3896 104.091 25.7046 O 0.0 **** 0.0
32738 O60 40.4483 95.309 23.5984 O 0.0 **** 0.0
32739 H61 28.2784 94.9468 32.8796 H 0.0 **** 0.0
32740 H62 27.7485 99.668 31.3596 H 0.0 **** 0.0
32741 H63 30.377 95.1411 30.7105 H 0.0 **** 0.0
32742 H64 30.9195 95.8376 32.3376 H 0.0 **** 0.0
32743 H65 28.5308 100.281 29.4558 H 0.0 **** 0.0
32744 H66 29.6644 101.247 30.5392 H 0.0 **** 0.0
32745 H67 29.4808 101.053 27.481 H 0.0 **** 0.0
32746 H68 29.1665 102.377 28.6595 H 0.0 **** 0.0
32747 H69 31.2681 102.465 27.3359 H 0.0 **** 0.0
32748 H70 31.4645 102.737 29.0462 H 0.0 **** 0.0
32749 H71 35.8096 100.572 29.551 H 0.0 **** 0.0
32750 H72 33.7148 102.87 27.7642 H 0.0 **** 0.0
32751 H73 40.692 103.948 25.6462 H 0.0 **** 0.0
32752 H74 41.1293 102.576 24.5285 H 0.0 **** 0.0
32753 H75 39.6341 104.301 23.4476 H 0.0 **** 0.0
32754 H76 39.0996 102.578 23.3962 H 0.0 **** 0.0
32755 H77 38.0857 104.812 25.2089 H 0.0 **** 0.0
32756 H78 37.144 103.925 23.9443 H 0.0 **** 0.0
32757 H79 38.5041 99.4388 28.6264 H 0.0 **** 0.0
32758 H80 41.6378 101.15 26.4238 H 0.0 **** 0.0
32759 H81 35.912 94.6516 29.8783 H 0.0 **** 0.0
32760 H82 34.6694 94.0827 28.644 H 0.0 **** 0.0
32761 H83 35.8286 98.465 26.2923 H 0.0 **** 0.0
32762 H84 36.8587 92.9159 28.0297 H 0.0 **** 0.0
32763 H85 39.526 93.0719 24.6824 H 0.0 **** 0.0
32764 H86 39.4893 97.7522 23.3986 H 0.0 **** 0.0
32765 H87 37.5975 98.6849 24.6585 H 0.0 **** 0.0
32766 H88 25.9554 95.0462 33.5366 H 0.0 **** 0.0
32767 H89 25.5027 98.7424 33.6302 H 0.0 **** 0.0
32768 H90 24.5139 98.1452 32.2589 H 0.0 **** 0.0
32769 H91 25.3706 99.7366 32.0776 H 0.0 **** 0.0
32770 H92 33.8393 94.541 31.2297 H 0.0 **** 0.0
32771 H93 37.8123 90.8148 26.8072 H 0.0 **** 0.0
32772 H94 39.9296 90.3484 28.0573 H 0.0 **** 0.0
32773 H95 38.7136 91.5555 28.7931 H 0.0 **** 0.0
32774 H96 40.247 92.1314 28.002 H 0.0 **** 0.0
32775 H97 40.6764 98.6416 28.8193 H 0.0 **** 0.0
32776 H98 34.3806 104.05 25.8167 H 0.0 **** 0.0
32777 H99 41.0045 94.6051 24.1066 H 0.0 **** 0.0
32778 H100 36.4925 99.0616 28.6899 H 0.0 **** 0.0
32779 H101 33.5887 101.913 26.2397 H 0.0 **** 0.0
32780 H102 39.2663 91.0134 25.7948 H 0.0 **** 0.0
32781 C1 8.65879 16.3597 67.1684 C 0.0 **** 0.0
32782 C2 9.82084 15.9521 66.4805 C 0.0 **** 0.0
32783 C3 10.7865 15.2731 67.1696 C 0.0 **** 0.0
32784 C4 10.7611 15.1423 68.5687 C 0.0 **** 0.0
32785 C5 9.6895 15.614 69.2988 C 0.0 **** 0.0
32786 C6 8.60209 16.1648 68.5917 C 0.0 **** 0.0
32787 C7 12.066 14.5517 68.9514 C 0.0 **** 0.0
32788 C8 12.7358 14.2295 67.7626 C 0.0 **** 0.0
32789 C9 12.0406 14.747 66.5527 C 0.0 **** 0.0
32790 C10 14.0712 13.7998 67.773 C 0.0 **** 0.0
32791 C11 14.7925 13.8756 69.0078 C 0.0 **** 0.0
32792 C12 14.0438 14.1963 70.2041 C 0.0 **** 0.0
32793 C13 12.6895 14.5461 70.2052 C 0.0 **** 0.0
32794 C14 11.9222 14.8811 71.4465 C 0.0 **** 0.0
32795 C15 12.7979 14.8937 72.7375 C 0.0 **** 0.0
32796 C16 13.9741 13.9178 72.7558 C 0.0 **** 0.0
32797 C17 14.7657 14.1231 71.4962 C 0.0 **** 0.0
32798 C18 16.1706 13.9272 71.5077 C 0.0 **** 0.0
32799 C19 16.8501 13.6437 70.304 C 0.0 **** 0.0
32800 C20 16.2049 13.6628 69.054 C 0.0 **** 0.0
32801 C21 16.8751 13.6258 67.7971 C 0.0 **** 0.0
32802 C22 16.1656 13.4308 66.5953 C 0.0 **** 0.0
32803 C23 14.7722 13.4697 66.5651 C 0.0 **** 0.0
32804 C24 17.9535 12.6348 70.5476 C 0.0 **** 0.0
32805 C25 18.9547 13.1056 71.5807 C 0.0 **** 0.0
32806 C26 18.4343 13.8192 72.6866 C 0.0 **** 0.0
32807 C27 16.9823 14.009 72.7875 C 0.0 **** 0.0
32808 C28 19.3588 14.2263 73.6895 C 0.0 **** 0.0
32809 C29 20.7307 13.9916 73.5811 C 0.0 **** 0.0
32810 C30 21.2018 13.1829 72.5608 C 0.0 **** 0.0
32811 C31 20.3067 12.6849 71.5599 C 0.0 **** 0.0
32812 C32 22.6019 12.6122 72.6833 C 0.0 **** 0.0
32813 C33 23.4834 12.9729 73.7791 C 0.0 **** 0.0
32814 C34 23.1752 14.3659 74.3105 C 0.0 **** 0.0
32815 C35 21.6746 14.51 74.6826 C 0.0 **** 0.0
32816 C36 20.8355 11.7312 70.6335 C 0.0 **** 0.0
32817 C37 22.0976 11.097 70.8341 C 0.0 **** 0.0
32818 C38 22.9367 11.5646 71.8346 C 0.0 **** 0.0
32819 C39 17.0497 13.5018 65.3354 C 0.0 **** 0.0
32820 C40 18.3397 13.8774 65.9398 C 0.0 **** 0.0
32821 C41 18.2143 13.964 67.3541 C 0.0 **** 0.0
32822 C42 19.2635 14.397 68.1499 C 0.0 **** 0.0
32823 C43 20.4744 14.7479 67.5138 C 0.0 **** 0.0
32824 C44 20.5906 14.7376 66.0842 C 0.0 **** 0.0
32825 C45 19.5091 14.2976 65.3076 C 0.0 **** 0.0
32826 C46 19.5522 14.4228 63.9123 C 0.0 **** 0.0
32827 C47 20.7256 14.8164 63.2492 C 0.0 **** 0.0
32828 C48 21.9139 15.0733 64.0312 C 0.0 **** 0.0
32829 C49 21.8262 15.0747 65.4482 C 0.0 **** 0.0
32830 C50 22.9611 15.3115 66.3266 C 0.0 **** 0.0
32831 C51 22.7908 15.3195 67.7455 C 0.0 **** 0.0
32832 C52 21.531 15.169 68.3263 C 0.0 **** 0.0
32833 O53 7.55873 16.8744 66.4695 O 0.0 **** 0.0
32834 C54 7.33353 16.4621 69.2749 C 0.0 **** 0.0
32835 O55 14.0745 13.1221 65.4053 O 0.0 **** 0.0
32836 C56 20.678 14.8646 61.7336 C 0.0 **** 0.0
32837 C57 20.9526 13.4416 61.1959 C 0.0 **** 0.0
32838 O58 22.4855 10.0384 70.0287 O 0.0 **** 0.0
32839 O59 18.9242 14.9398 74.8205 O 0.0 **** 0.0
32840 O60 24.3028 15.4339 65.867 O 0.0 **** 0.0
32841 H61 9.7663 16.0374 65.4272 H 0.0 **** 0.0
32842 H62 9.63841 15.4404 70.3946 H 0.0 **** 0.0
32843 H63 12.6216 15.5699 66.0829 H 0.0 **** 0.0
32844 H64 11.727 13.9165 65.9655 H 0.0 **** 0.0
32845 H65 11.5664 15.9436 71.292 H 0.0 **** 0.0
32846 H66 11.1306 14.1082 71.5364 H 0.0 **** 0.0
32847 H67 13.2744 15.9174 72.8031 H 0.0 **** 0.0
32848 H68 12.1578 14.7562 73.6268 H 0.0 **** 0.0
32849 H69 14.4965 14.0824 73.6802 H 0.0 **** 0.0
32850 H70 13.5789 12.8172 72.7839 H 0.0 **** 0.0
32851 H71 17.4708 11.7042 70.914 H 0.0 **** 0.0
32852 H72 16.6185 13.3069 73.5606 H 0.0 **** 0.0
32853 H73 23.4208 12.255 74.5805 H 0.0 **** 0.0
32854 H74 24.5091 13.0038 73.35 H 0.0 **** 0.0
32855 H75 23.8252 14.4795 75.2253 H 0.0 **** 0.0
32856 H76 23.4812 15.1233 73.5707 H 0.0 **** 0.0
32857 H77 21.5551 13.9564 75.6141 H 0.0 **** 0.0
32858 H78 21.5104 15.6095 74.7985 H 0.0 **** 0.0
32859 H79 20.2355 11.255 69.8991 H 0.0 **** 0.0
32860 H80 23.8792 11.0608 71.9849 H 0.0 **** 0.0
32861 H81 17.1344 12.5652 64.8046 H 0.0 **** 0.0
32862 H82 16.7123 14.3211 64.7049 H 0.0 **** 0.0
32863 H83 19.0892 14.6202 69.1427 H 0.0 **** 0.0
32864 H84 18.6618 14.2778 63.3369 H 0.0 **** 0.0
32865 H85 22.8053 15.4148 63.5135 H 0.0 **** 0.0
32866 H86 23.6285 15.5101 68.4292 H 0.0 **** 0.0
32867 H87 21.5293 15.0661 69.4127 H 0.0 **** 0.0
32868 H88 7.66807 16.8584 65.4659 H 0.0 **** 0.0
32869 H89 6.96859 17.3851 68.8812 H 0.0 **** 0.0
32870 H90 7.44933 16.6437 70.3567 H 0.0 **** 0.0
32871 H91 6.61545 15.601 69.2046 H 0.0 **** 0.0
32872 H92 14.5858 12.8479 64.6038 H 0.0 **** 0.0
32873 H93 19.6986 15.1577 61.365 H 0.0 **** 0.0
32874 H94 21.2685 13.5524 60.1554 H 0.0 **** 0.0
32875 H95 20.0064 12.8643 61.2386 H 0.0 **** 0.0
32876 H96 21.7754 12.8789 61.758 H 0.0 **** 0.0
32877 H97 21.7497 9.69268 69.4366 H 0.0 **** 0.0
32878 H98 17.9207 15.0726 74.9268 H 0.0 **** 0.0
32879 H99 24.3814 15.2268 64.9148 H 0.0 **** 0.0
32880 H100 18.4056 12.3073 69.5858 H 0.0 **** 0.0
32881 H101 16.7653 15.0486 73.1133 H 0.0 **** 0.0
32882 H102 21.3899 15.5966 61.286 H 0.0 **** 0.0
32883 C1 51.3104 71.1182 28.1399 C 0.0 **** 0.0
32884 C2 52.2017 71.407 27.1062 C 0.0 **** 0.0
32885 C3 52.9993 72.5203 27.1905 C 0.0 **** 0.0
32886 C4 52.8536 73.4559 28.2223 C 0.0 **** 0.0
32887 C5 51.9256 73.1991 29.2765 C 0.0 **** 0.0
32888 C6 51.1581 72.0428 29.1739 C 0.0 **** 0.0
32889 C7 53.9717 74.4501 28.1304 C 0.0 **** 0.0
32890 C8 54.7044 74.0919 27.0124 C 0.0 **** 0.0
32891 C9 54.1257 72.8205 26.332 C 0.0 **** 0.0
32892 C10 55.9023 74.7808 26.7147 C 0.0 **** 0.0
32893 C11 56.3493 75.8627 27.5471 C 0.0 **** 0.0
32894 C12 55.5785 76.2121 28.6855 C 0.0 **** 0.0
32895 C13 54.3662 75.5243 28.9764 C 0.0 **** 0.0
32896 C14 53.4246 76.007 30.0756 C 0.0 **** 0.0
32897 C15 53.6721 77.4872 30.4058 C 0.0 **** 0.0
32898 C16 55.1396 77.8064 30.6719 C 0.0 **** 0.0
32899 C17 56.0063 77.3798 29.5252 C 0.0 **** 0.0
32900 C18 57.3508 77.8075 29.4289 C 0.0 **** 0.0
32901 C19 58.1434 77.2811 28.3858 C 0.0 **** 0.0
32902 C20 57.5605 76.5555 27.3068 C 0.0 **** 0.0
32903 C21 58.2372 76.2906 26.1146 C 0.0 **** 0.0
32904 C22 57.8415 75.2586 25.292 C 0.0 **** 0.0
32905 C23 56.7119 74.4627 25.5863 C 0.0 **** 0.0
32906 C24 59.6122 77.0544 28.7115 C 0.0 **** 0.0
32907 C25 60.2668 78.32 29.263 C 0.0 **** 0.0
32908 C26 59.4861 79.0797 30.1498 C 0.0 **** 0.0
32909 C27 58.0038 78.7181 30.4788 C 0.0 **** 0.0
32910 C28 60.0613 80.1881 30.7912 C 0.0 **** 0.0
32911 C29 61.2793 80.7184 30.3315 C 0.0 **** 0.0
32912 C30 62.1164 79.9417 29.5341 C 0.0 **** 0.0
32913 C31 61.629 78.7129 29.0256 C 0.0 **** 0.0
32914 C32 63.539 80.3158 29.2792 C 0.0 **** 0.0
32915 C33 64.0706 81.5957 29.915 C 0.0 **** 0.0
32916 C34 62.9219 82.597 30.0411 C 0.0 **** 0.0
32917 C35 61.7326 82.0552 30.8483 C 0.0 **** 0.0
32918 C36 62.5208 77.8782 28.3159 C 0.0 **** 0.0
32919 C37 63.906 78.1091 28.2344 C 0.0 **** 0.0
32920 C38 64.3882 79.3652 28.6556 C 0.0 **** 0.0
32921 C39 58.6763 75.2484 24.0502 C 0.0 **** 0.0
32922 C40 59.5204 76.4569 24.273 C 0.0 **** 0.0
32923 C41 59.2187 77.0868 25.4621 C 0.0 **** 0.0
32924 C42 59.7115 78.3542 25.7698 C 0.0 **** 0.0
32925 C43 60.7373 78.8575 24.9318 C 0.0 **** 0.0
32926 C44 61.1264 78.1961 23.7641 C 0.0 **** 0.0
32927 C45 60.4373 76.9987 23.3568 C 0.0 **** 0.0
32928 C46 60.7684 76.3651 22.1667 C 0.0 **** 0.0
32929 C47 61.8647 76.7978 21.3922 C 0.0 **** 0.0
32930 C48 62.536 77.9703 21.7675 C 0.0 **** 0.0
32931 C49 62.1583 78.7236 22.9155 C 0.0 **** 0.0
32932 C50 62.7611 79.9435 23.2952 C 0.0 **** 0.0
32933 C51 62.3204 80.6403 24.3792 C 0.0 **** 0.0
32934 C52 61.4027 80.0839 25.2489 C 0.0 **** 0.0
32935 O53 50.5274 69.9898 28.0794 O 0.0 **** 0.0
32936 C54 50.1917 71.8048 30.2755 C 0.0 **** 0.0
32937 O55 56.3407 73.4241 24.7116 O 0.0 **** 0.0
32938 C56 62.3236 75.9519 20.2422 C 0.0 **** 0.0
32939 C57 61.2031 75.7589 19.2124 C 0.0 **** 0.0
32940 O58 64.7829 77.1419 27.7433 O 0.0 **** 0.0
32941 O59 59.4571 80.8724 31.8599 O 0.0 **** 0.0
32942 O60 63.8538 80.4643 22.6034 O 0.0 **** 0.0
32943 H61 52.3558 70.7264 26.2612 H 0.0 **** 0.0
32944 H62 51.8852 73.8204 30.107 H 0.0 **** 0.0
32945 H63 53.7864 72.9773 25.283 H 0.0 **** 0.0
32946 H64 54.8674 71.9974 26.37 H 0.0 **** 0.0
32947 H65 52.3695 75.9031 29.7266 H 0.0 **** 0.0
32948 H66 53.5953 75.4584 31.0089 H 0.0 **** 0.0
32949 H67 53.3025 78.1111 29.5346 H 0.0 **** 0.0
32950 H68 53.0661 77.8018 31.2009 H 0.0 **** 0.0
32951 H69 55.219 78.858 30.8513 H 0.0 **** 0.0
32952 H70 55.4833 77.2795 31.6333 H 0.0 **** 0.0
32953 H71 59.6516 76.2299 29.442 H 0.0 **** 0.0
32954 H72 57.9038 78.1916 31.4584 H 0.0 **** 0.0
32955 H73 64.5124 81.398 30.8898 H 0.0 **** 0.0
32956 H74 64.877 82.0327 29.2589 H 0.0 **** 0.0
32957 H75 63.3291 83.4885 30.5585 H 0.0 **** 0.0
32958 H76 62.5549 82.8968 29.0413 H 0.0 **** 0.0
32959 H77 62.0511 81.9548 31.939 H 0.0 **** 0.0
32960 H78 60.9121 82.777 30.7723 H 0.0 **** 0.0
32961 H79 62.2321 76.8691 28.0423 H 0.0 **** 0.0
32962 H80 65.4357 79.6256 28.5743 H 0.0 **** 0.0
32963 H81 59.2533 74.2912 23.9698 H 0.0 **** 0.0
32964 H82 57.9984 75.3157 23.157 H 0.0 **** 0.0
32965 H83 59.3504 78.9139 26.6451 H 0.0 **** 0.0
32966 H84 60.2603 75.433 21.8664 H 0.0 **** 0.0
32967 H85 63.3468 78.2808 21.1319 H 0.0 **** 0.0
32968 H86 62.7222 81.617 24.6405 H 0.0 **** 0.0
32969 H87 61.1991 80.6213 26.1683 H 0.0 **** 0.0
32970 H88 50.6438 69.433 27.24 H 0.0 **** 0.0
32971 H89 50.6772 71.5043 31.2133 H 0.0 **** 0.0
32972 H90 49.4359 71.0709 29.9491 H 0.0 **** 0.0
32973 H91 49.587 72.7324 30.462 H 0.0 **** 0.0
32974 H92 57.0954 73.025 24.1722 H 0.0 **** 0.0
32975 H93 63.1345 76.4733 19.6466 H 0.0 **** 0.0
32976 H94 61.5424 75.2342 18.304 H 0.0 **** 0.0
32977 H95 60.8901 76.7593 18.9144 H 0.0 **** 0.0
32978 H96 60.3653 75.1749 19.6354 H 0.0 **** 0.0
32979 H97 64.3635 76.3165 27.336 H 0.0 **** 0.0
32980 H98 58.7531 80.2991 32.3388 H 0.0 **** 0.0
32981 H99 63.9075 80.2548 21.6302 H 0.0 **** 0.0
32982 H100 60.105 76.6416 27.854 H 0.0 **** 0.0
32983 H101 57.3547 79.6331 30.4899 H 0.0 **** 0.0
32984 H102 62.6903 74.9585 20.5932 H 0.0 **** 0.0
32985 C1 51.2825 55.5001 6.45033 C 0.0 **** 0.0
32986 C2 50.8207 54.8697 5.26537 C 0.0 **** 0.0
32987 C3 50.9826 53.4747 5.11241 C 0.0 **** 0.0
32988 C4 51.6142 52.7225 6.04655 C 0.0 **** 0.0
32989 C5 52.0375 53.3355 7.24499 C 0.0 **** 0.0
32990 C6 51.8914 54.7338 7.44396 C 0.0 **** 0.0
32991 C7 52.0507 51.466 5.40822 C 0.0 **** 0.0
32992 C8 51.501 51.4296 4.15696 C 0.0 **** 0.0
32993 C9 50.7584 52.7236 3.88054 C 0.0 **** 0.0
32994 C10 51.8131 50.4345 3.21199 C 0.0 **** 0.0
32995 C11 52.7564 49.4555 3.56249 C 0.0 **** 0.0
32996 C12 53.3208 49.4508 4.87618 C 0.0 **** 0.0
32997 C13 53.0128 50.483 5.80337 C 0.0 **** 0.0
32998 C14 53.6904 50.5741 7.1692 C 0.0 **** 0.0
32999 C15 54.8736 49.5623 7.31649 C 0.0 **** 0.0
33000 C16 54.6218 48.2162 6.74463 C 0.0 **** 0.0
33001 C17 54.2047 48.3603 5.27955 C 0.0 **** 0.0
33002 C18 54.4048 47.2696 4.36383 C 0.0 **** 0.0
33003 C19 53.7587 47.2486 3.14052 C 0.0 **** 0.0
33004 C20 53.0708 48.3938 2.61414 C 0.0 **** 0.0
33005 C21 52.6577 48.5732 1.25506 C 0.0 **** 0.0
33006 C22 51.687 49.5118 0.977132 C 0.0 **** 0.0
33007 C23 51.2533 50.4221 1.91914 C 0.0 **** 0.0
33008 C24 53.431 45.8985 2.60727 C 0.0 **** 0.0
33009 C25 54.6317 44.9813 2.59067 C 0.0 **** 0.0
33010 C26 55.5529 45.0789 3.65738 C 0.0 **** 0.0
33011 C27 55.3936 46.1703 4.70269 C 0.0 **** 0.0
33012 C28 56.5688 44.1256 3.81653 C 0.0 **** 0.0
33013 C29 56.9026 43.2574 2.75004 C 0.0 **** 0.0
33014 C30 56.019 43.1994 1.62416 C 0.0 **** 0.0
33015 C31 54.8238 43.9864 1.59201 C 0.0 **** 0.0
33016 C32 56.3579 42.3325 0.453281 C 0.0 **** 0.0
33017 C33 57.6502 41.5629 0.411016 C 0.0 **** 0.0
33018 C34 58.6634 42.0632 1.45814 C 0.0 **** 0.0
33019 C35 58.0554 42.2738 2.83725 C 0.0 **** 0.0
33020 C36 53.8368 43.6517 0.62591 C 0.0 **** 0.0
33021 C37 54.0948 42.7231 -0.442829 C 0.0 **** 0.0
33022 C38 55.3938 42.167 -0.554852 C 0.0 **** 0.0
33023 C39 51.5625 49.7189 -0.503009 C 0.0 **** 0.0
33024 C40 52.6333 48.8238 -0.985189 C 0.0 **** 0.0
33025 C41 53.1755 48.1052 0.041782 C 0.0 **** 0.0
33026 C42 54.2832 47.2365 -0.22826 C 0.0 **** 0.0
33027 C43 54.7431 47.0678 -1.55112 C 0.0 **** 0.0
33028 C44 54.1879 47.9154 -2.57805 C 0.0 **** 0.0
33029 C45 53.1138 48.7949 -2.28304 C 0.0 **** 0.0
33030 C46 52.6384 49.6611 -3.28359 C 0.0 **** 0.0
33031 C47 53.1777 49.6498 -4.58003 C 0.0 **** 0.0
33032 C48 54.1903 48.7101 -4.88074 C 0.0 **** 0.0
33033 C49 54.6993 47.8225 -3.90893 C 0.0 **** 0.0
33034 C50 55.7791 46.9059 -4.15271 C 0.0 **** 0.0
33035 C51 56.1457 45.9832 -3.13973 C 0.0 **** 0.0
33036 C52 55.6872 46.0951 -1.85114 C 0.0 **** 0.0
33037 O53 51.1005 56.8706 6.65448 O 0.0 **** 0.0
33038 C54 52.4809 55.3124 8.67736 C 0.0 **** 0.0
33039 O55 50.3039 51.3684 1.55587 O 0.0 **** 0.0
33040 C56 52.6081 50.5845 -5.58736 C 0.0 **** 0.0
33041 C57 53.5124 51.7563 -5.97511 C 0.0 **** 0.0
33042 O58 53.1178 42.5115 -1.45112 O 0.0 **** 0.0
33043 O59 57.3208 44.0111 4.99158 O 0.0 **** 0.0
33044 O60 56.6629 47.1004 -5.21883 O 0.0 **** 0.0
33045 H61 50.344 55.407 4.48907 H 0.0 **** 0.0
33046 H62 52.6241 52.7774 7.94705 H 0.0 **** 0.0
33047 H63 51.2813 53.2838 3.04947 H 0.0 **** 0.0
33048 H64 49.7034 52.532 3.72479 H 0.0 **** 0.0
33049 H65 54.1611 51.5737 7.25055 H 0.0 **** 0.0
33050 H66 52.9538 50.4639 7.95997 H 0.0 **** 0.0
33051 H67 55.8249 50.018 6.92273 H 0.0 **** 0.0
33052 H68 55.0381 49.3635 8.39084 H 0.0 **** 0.0
33053 H69 55.5527 47.6744 6.84575 H 0.0 **** 0.0
33054 H70 53.8336 47.725 7.32792 H 0.0 **** 0.0
33055 H71 52.7179 45.4495 3.37504 H 0.0 **** 0.0
33056 H72 55.018 45.7003 5.60195 H 0.0 **** 0.0
33057 H73 57.4525 40.476 0.604893 H 0.0 **** 0.0
33058 H74 58.0326 41.6742 -0.626684 H 0.0 **** 0.0
33059 H75 59.5094 41.3052 1.55508 H 0.0 **** 0.0
33060 H76 59.1223 43.0106 1.1069 H 0.0 **** 0.0
33061 H77 57.573 41.3445 3.22553 H 0.0 **** 0.0
33062 H78 58.8773 42.6387 3.49937 H 0.0 **** 0.0
33063 H79 52.8513 44.0856 0.622065 H 0.0 **** 0.0
33064 H80 55.547 41.4943 -1.39656 H 0.0 **** 0.0
33065 H81 50.5685 49.4106 -0.916157 H 0.0 **** 0.0
33066 H82 51.7717 50.8175 -0.838591 H 0.0 **** 0.0
33067 H83 54.8026 46.714 0.544217 H 0.0 **** 0.0
33068 H84 51.8768 50.3706 -3.0526 H 0.0 **** 0.0
33069 H85 54.6107 48.6798 -5.85504 H 0.0 **** 0.0
33070 H86 56.8987 45.1883 -3.3395 H 0.0 **** 0.0
33071 H87 56.0793 45.3594 -1.10346 H 0.0 **** 0.0
33072 H88 50.6026 57.2886 5.84652 H 0.0 **** 0.0
33073 H89 53.5147 54.9342 8.79717 H 0.0 **** 0.0
33074 H90 51.8473 54.9611 9.5247 H 0.0 **** 0.0
33075 H91 52.5357 56.3972 8.53985 H 0.0 **** 0.0
33076 H92 49.8552 51.2065 0.669003 H 0.0 **** 0.0
33077 H93 52.3658 50.0466 -6.50416 H 0.0 **** 0.0
33078 H94 53.0475 52.5531 -6.54095 H 0.0 **** 0.0
33079 H95 54.3702 51.4197 -6.55804 H 0.0 **** 0.0
33080 H96 53.8669 52.2382 -4.99511 H 0.0 **** 0.0
33081 H97 52.2367 42.9789 -1.35716 H 0.0 **** 0.0
33082 H98 57.1952 44.6928 5.66406 H 0.0 **** 0.0
33083 H99 56.6021 48.0178 -5.67338 H 0.0 **** 0.0
33084 H100 52.8432 45.9516 1.64671 H 0.0 **** 0.0
33085 H101 56.413 46.5801 4.91045 H 0.0 **** 0.0
33086 H102 51.6231 51.0287 -5.2985 H 0.0 **** 0.0
33087 C1 80.877 67.2937 93.9396 C 0.0 **** 0.0
33088 C2 80.6073 65.895 93.8523 C 0.0 **** 0.0
33089 C3 79.5692 65.3293 94.5906 C 0.0 **** 0.0
33090 C4 78.7395 66.1272 95.3148 C 0.0 **** 0.0
33091 C5 78.9351 67.5197 95.3578 C 0.0 **** 0.0
33092 C6 80.0288 68.1151 94.7475 C 0.0 **** 0.0
33093 C7 77.8153 65.2441 96.0368 C 0.0 **** 0.0
33094 C8 78.0814 63.9103 95.7156 C 0.0 **** 0.0
33095 C9 79.2821 63.8939 94.7635 C 0.0 **** 0.0
33096 C10 77.2938 62.8482 96.1812 C 0.0 **** 0.0
33097 C11 76.0679 63.1721 96.8312 C 0.0 **** 0.0
33098 C12 75.7443 64.5353 97.0885 C 0.0 **** 0.0
33099 C13 76.6983 65.5588 96.8191 C 0.0 **** 0.0
33100 C14 76.4905 66.92 97.4235 C 0.0 **** 0.0
33101 C15 75.6672 66.84 98.6923 C 0.0 **** 0.0
33102 C16 74.3239 66.1266 98.5259 C 0.0 **** 0.0
33103 C17 74.4589 64.8365 97.7903 C 0.0 **** 0.0
33104 C18 73.4202 63.8807 97.657 C 0.0 **** 0.0
33105 C19 73.7894 62.5409 97.3674 C 0.0 **** 0.0
33106 C20 75.1781 62.1745 97.271 C 0.0 **** 0.0
33107 C21 75.6816 60.8315 97.3727 C 0.0 **** 0.0
33108 C22 76.9228 60.5413 96.8103 C 0.0 **** 0.0
33109 C23 77.731 61.52 96.1904 C 0.0 **** 0.0
33110 C24 72.7331 61.5341 96.9844 C 0.0 **** 0.0
33111 C25 71.2838 62.0748 96.8554 C 0.0 **** 0.0
33112 C26 70.9671 63.3999 97.2906 C 0.0 **** 0.0
33113 C27 72.0248 64.19 98.0352 C 0.0 **** 0.0
33114 C28 69.5903 63.7544 97.3376 C 0.0 **** 0.0
33115 C29 68.5489 62.8973 96.8316 C 0.0 **** 0.0
33116 C30 68.9265 61.6453 96.2599 C 0.0 **** 0.0
33117 C31 70.2868 61.247 96.2744 C 0.0 **** 0.0
33118 C32 67.8691 60.7245 95.7813 C 0.0 **** 0.0
33119 C33 66.4714 61.1839 95.6285 C 0.0 **** 0.0
33120 C34 66.0453 62.1403 96.763 C 0.0 **** 0.0
33121 C35 67.0561 63.2657 97.0817 C 0.0 **** 0.0
33122 C36 70.542 59.9159 95.7404 C 0.0 **** 0.0
33123 C37 69.532 59.0674 95.2452 C 0.0 **** 0.0
33124 C38 68.2048 59.4797 95.2863 C 0.0 **** 0.0
33125 C39 77.484 59.2592 97.4482 C 0.0 **** 0.0
33126 C40 76.4887 58.9593 98.4858 C 0.0 **** 0.0
33127 C41 75.4536 59.9164 98.4063 C 0.0 **** 0.0
33128 C42 74.5912 59.9843 99.4807 C 0.0 **** 0.0
33129 C43 74.7184 59.1662 100.629 C 0.0 **** 0.0
33130 C44 75.6937 58.1778 100.671 C 0.0 **** 0.0
33131 C45 76.6257 58.0859 99.5827 C 0.0 **** 0.0
33132 C46 77.5751 57.0412 99.6189 C 0.0 **** 0.0
33133 C47 77.6395 56.173 100.703 C 0.0 **** 0.0
33134 C48 76.783 56.3509 101.772 C 0.0 **** 0.0
33135 C49 75.7481 57.3281 101.768 C 0.0 **** 0.0
33136 C50 74.8811 57.5302 102.898 C 0.0 **** 0.0
33137 C51 73.9805 58.6086 102.84 C 0.0 **** 0.0
33138 C52 73.874 59.4066 101.776 C 0.0 **** 0.0
33139 O53 81.9745 67.7429 93.1911 O 0.0 **** 0.0
33140 C54 80.3019 69.5341 94.9722 C 0.0 **** 0.0
33141 O55 79.0073 61.1638 95.7518 O 0.0 **** 0.0
33142 C56 78.6899 55.0969 100.81 C 0.0 **** 0.0
33143 C57 78.0587 53.7119 100.541 C 0.0 **** 0.0
33144 O58 69.8441 57.7909 94.7339 O 0.0 **** 0.0
33145 O59 69.2202 64.9793 97.9205 O 0.0 **** 0.0
33146 O60 74.7574 56.6663 103.966 O 0.0 **** 0.0
33147 H61 81.3145 65.2656 93.3147 H 0.0 **** 0.0
33148 H62 78.2523 68.1224 95.9237 H 0.0 **** 0.0
33149 H63 80.1803 63.3959 95.1945 H 0.0 **** 0.0
33150 H64 78.9955 63.4666 93.8066 H 0.0 **** 0.0
33151 H65 77.4378 67.4269 97.7269 H 0.0 **** 0.0
33152 H66 75.9582 67.5639 96.7243 H 0.0 **** 0.0
33153 H67 76.241 66.1699 99.3804 H 0.0 **** 0.0
33154 H68 75.5141 67.8163 99.1395 H 0.0 **** 0.0
33155 H69 73.822 65.9642 99.5082 H 0.0 **** 0.0
33156 H70 73.6553 66.754 97.9295 H 0.0 **** 0.0
33157 H71 73.0891 61.1062 95.9979 H 0.0 **** 0.0
33158 H72 71.9248 65.265 97.8583 H 0.0 **** 0.0
33159 H73 66.4001 61.6947 94.6276 H 0.0 **** 0.0
33160 H74 65.7763 60.2745 95.6462 H 0.0 **** 0.0
33161 H75 65.0742 62.5936 96.5354 H 0.0 **** 0.0
33162 H76 65.9121 61.5393 97.6683 H 0.0 **** 0.0
33163 H77 66.8296 64.1735 96.4352 H 0.0 **** 0.0
33164 H78 67.0093 63.5865 98.1617 H 0.0 **** 0.0
33165 H79 71.5739 59.5279 95.6745 H 0.0 **** 0.0
33166 H80 67.4859 58.8793 94.7977 H 0.0 **** 0.0
33167 H81 77.5029 58.4994 96.6643 H 0.0 **** 0.0
33168 H82 78.4783 59.4777 97.9984 H 0.0 **** 0.0
33169 H83 73.8739 60.7956 99.5318 H 0.0 **** 0.0
33170 H84 78.2894 56.9826 98.8262 H 0.0 **** 0.0
33171 H85 76.8561 55.6987 102.581 H 0.0 **** 0.0
33172 H86 73.3689 58.773 103.786 H 0.0 **** 0.0
33173 H87 73.1747 60.2357 101.832 H 0.0 **** 0.0
33174 H88 82.0479 68.7712 93.138 H 0.0 **** 0.0
33175 H89 80.4165 70.1401 94.1055 H 0.0 **** 0.0
33176 H90 81.1831 69.5803 95.6686 H 0.0 **** 0.0
33177 H91 79.5032 70.1136 95.4708 H 0.0 **** 0.0
33178 H92 79.1825 60.2071 95.5918 H 0.0 **** 0.0
33179 H93 79.4703 55.2691 100.085 H 0.0 **** 0.0
33180 H94 78.7956 52.9316 100.717 H 0.0 **** 0.0
33181 H95 77.7557 53.6046 99.4858 H 0.0 **** 0.0
33182 H96 77.1539 53.5997 101.198 H 0.0 **** 0.0
33183 H97 70.8107 57.4951 94.6759 H 0.0 **** 0.0
33184 H98 69.8722 65.4225 98.537 H 0.0 **** 0.0
33185 H99 75.3099 55.8487 103.924 H 0.0 **** 0.0
33186 H100 72.6919 60.6768 97.6761 H 0.0 **** 0.0
33187 H101 71.8994 63.9236 99.1231 H 0.0 **** 0.0
33188 H102 79.2379 55.0833 101.826 H 0.0 **** 0.0
33189 C1 14.1947 89.6094 64.4134 C 0.0 **** 0.0
33190 C2 14.879 88.8562 63.4422 C 0.0 **** 0.0
33191 C3 14.642 89.1207 62.1004 C 0.0 **** 0.0
33192 C4 13.8233 90.1099 61.7073 C 0.0 **** 0.0
33193 C5 13.1455 90.8925 62.6593 C 0.0 **** 0.0
33194 C6 13.3332 90.6778 64.0242 C 0.0 **** 0.0
33195 C7 13.98 90.3017 60.2403 C 0.0 **** 0.0
33196 C8 14.791 89.2278 59.7905 C 0.0 **** 0.0
33197 C9 15.2812 88.3985 60.9719 C 0.0 **** 0.0
33198 C10 15.2703 89.2561 58.4824 C 0.0 **** 0.0
33199 C11 14.8598 90.3858 57.6462 C 0.0 **** 0.0
33200 C12 14.1115 91.4243 58.1254 C 0.0 **** 0.0
33201 C13 13.6027 91.4091 59.4023 C 0.0 **** 0.0
33202 C14 12.5307 92.3992 59.8671 C 0.0 **** 0.0
33203 C15 12.1138 93.4538 58.8501 C 0.0 **** 0.0
33204 C16 13.2294 93.8615 57.9472 C 0.0 **** 0.0
33205 C17 13.9184 92.6651 57.3163 C 0.0 **** 0.0
33206 C18 14.7295 92.8647 56.1528 C 0.0 **** 0.0
33207 C19 15.3371 91.7363 55.5614 C 0.0 **** 0.0
33208 C20 15.2483 90.4658 56.2804 C 0.0 **** 0.0
33209 C21 15.7211 89.2556 55.7442 C 0.0 **** 0.0
33210 C22 16.2675 88.2329 56.5253 C 0.0 **** 0.0
33211 C23 16.0487 88.2042 57.9157 C 0.0 **** 0.0
33212 C24 16.1288 91.8777 54.2546 C 0.0 **** 0.0
33213 C25 16.601 93.2813 53.8779 C 0.0 **** 0.0
33214 C26 16.1532 94.3761 54.6122 C 0.0 **** 0.0
33215 C27 15.1616 94.2659 55.7267 C 0.0 **** 0.0
33216 C28 16.6705 95.6657 54.3093 C 0.0 **** 0.0
33217 C29 17.5752 95.8687 53.2745 C 0.0 **** 0.0
33218 C30 17.9571 94.7713 52.4999 C 0.0 **** 0.0
33219 C31 17.4499 93.4687 52.7509 C 0.0 **** 0.0
33220 C32 18.8043 94.9896 51.3177 C 0.0 **** 0.0
33221 C33 19.3655 96.3353 51.0286 C 0.0 **** 0.0
33222 C34 18.4583 97.4573 51.525 C 0.0 **** 0.0
33223 C35 18.0361 97.2779 52.9853 C 0.0 **** 0.0
33224 C36 17.7818 92.4003 51.8358 C 0.0 **** 0.0
33225 C37 18.7056 92.6408 50.7765 C 0.0 **** 0.0
33226 C38 19.237 93.9219 50.5658 C 0.0 **** 0.0
33227 C39 16.9783 87.2397 55.6629 C 0.0 **** 0.0
33228 C40 16.4961 87.7296 54.3414 C 0.0 **** 0.0
33229 C41 15.7233 88.8221 54.4375 C 0.0 **** 0.0
33230 C42 14.8513 89.1846 53.4019 C 0.0 **** 0.0
33231 C43 14.9876 88.5799 52.1661 C 0.0 **** 0.0
33232 C44 15.9927 87.5711 51.9998 C 0.0 **** 0.0
33233 C45 16.7308 87.1181 53.1168 C 0.0 **** 0.0
33234 C46 17.6617 86.0856 52.9724 C 0.0 **** 0.0
33235 C47 17.8985 85.4995 51.7333 C 0.0 **** 0.0
33236 C48 17.1376 85.8912 50.6527 C 0.0 **** 0.0
33237 C49 16.1774 86.9138 50.7479 C 0.0 **** 0.0
33238 C50 15.4174 87.3733 49.6612 C 0.0 **** 0.0
33239 C51 14.53 88.4525 49.847 C 0.0 **** 0.0
33240 C52 14.2721 89.0476 51.0702 C 0.0 **** 0.0
33241 O53 14.3888 89.3252 65.7725 O 0.0 **** 0.0
33242 C54 12.6964 91.6345 65.0198 C 0.0 **** 0.0
33243 O55 16.4168 87.0674 58.6719 O 0.0 **** 0.0
33244 C56 18.916 84.4228 51.5709 C 0.0 **** 0.0
33245 C57 20.3105 84.8667 52.0058 C 0.0 **** 0.0
33246 O58 19.0223 91.5944 49.9226 O 0.0 **** 0.0
33247 O59 16.1686 96.8225 54.9763 O 0.0 **** 0.0
33248 O60 15.4114 86.7892 48.3534 O 0.0 **** 0.0
33249 H61 15.5183 88.0603 63.766 H 0.0 **** 0.0
33250 H62 12.4524 91.7212 62.393 H 0.0 **** 0.0
33251 H63 14.887 87.3504 60.9452 H 0.0 **** 0.0
33252 H64 16.3739 88.4226 61.1857 H 0.0 **** 0.0
33253 H65 11.6416 91.7839 60.2073 H 0.0 **** 0.0
33254 H66 12.8722 92.9498 60.7408 H 0.0 **** 0.0
33255 H67 11.2527 93.0658 58.2968 H 0.0 **** 0.0
33256 H68 11.7114 94.2885 59.4383 H 0.0 **** 0.0
33257 H69 12.8422 94.5271 57.1427 H 0.0 **** 0.0
33258 H70 13.9225 94.4562 58.504 H 0.0 **** 0.0
33259 H71 17.0753 91.2944 54.2689 H 0.0 **** 0.0
33260 H72 15.5835 94.7684 56.6435 H 0.0 **** 0.0
33261 H73 20.2594 96.4037 51.6054 H 0.0 **** 0.0
33262 H74 19.5587 96.5271 49.9627 H 0.0 **** 0.0
33263 H75 19.0056 98.4316 51.4367 H 0.0 **** 0.0
33264 H76 17.547 97.5181 50.8849 H 0.0 **** 0.0
33265 H77 18.8936 97.5159 53.6371 H 0.0 **** 0.0
33266 H78 17.2909 98.096 53.2109 H 0.0 **** 0.0
33267 H79 17.4763 91.3745 52.0181 H 0.0 **** 0.0
33268 H80 19.9549 94.1135 49.7793 H 0.0 **** 0.0
33269 H81 18.0672 87.3728 55.6785 H 0.0 **** 0.0
33270 H82 16.7041 86.1568 55.8642 H 0.0 **** 0.0
33271 H83 14.081 89.8841 53.6 H 0.0 **** 0.0
33272 H84 18.2362 85.7405 53.8343 H 0.0 **** 0.0
33273 H85 17.3576 85.4403 49.7237 H 0.0 **** 0.0
33274 H86 13.9068 88.7231 48.9889 H 0.0 **** 0.0
33275 H87 13.5448 89.8672 51.1275 H 0.0 **** 0.0
33276 H88 14.8164 88.4276 66.0433 H 0.0 **** 0.0
33277 H89 12.0069 91.1354 65.7104 H 0.0 **** 0.0
33278 H90 12.1316 92.4895 64.534 H 0.0 **** 0.0
33279 H91 13.4431 92.0854 65.6916 H 0.0 **** 0.0
33280 H92 16.6375 86.2618 58.0957 H 0.0 **** 0.0
33281 H93 18.5834 83.6037 52.2456 H 0.0 **** 0.0
33282 H94 20.8691 84.0039 52.4379 H 0.0 **** 0.0
33283 H95 20.2378 85.6808 52.7991 H 0.0 **** 0.0
33284 H96 20.8305 85.3199 51.1699 H 0.0 **** 0.0
33285 H97 18.6932 90.6433 50.163 H 0.0 **** 0.0
33286 H98 15.4639 96.7733 55.6667 H 0.0 **** 0.0
33287 H99 15.9307 85.9261 48.2533 H 0.0 **** 0.0
33288 H100 15.5074 91.5697 53.4316 H 0.0 **** 0.0
33289 H101 14.2393 94.8131 55.4222 H 0.0 **** 0.0
33290 H102 18.9586 83.9823 50.5598 H 0.0 **** 0.0
33291 C1 27.1537 27.0246 83.7956 C 0.0 **** 0.0
33292 C2 27.6979 25.8414 84.3701 C 0.0 **** 0.0
33293 C3 29.0139 25.8178 84.8658 C 0.0 **** 0.0
33294 C4 29.8256 26.9223 84.7675 C 0.0 **** 0.0
33295 C5 29.3684 28.0907 84.0237 C 0.0 **** 0.0
33296 C6 28.0047 28.1699 83.6255 C 0.0 **** 0.0
33297 C7 30.9507 26.661 85.6917 C 0.0 **** 0.0
33298 C8 30.8074 25.4102 86.2657 C 0.0 **** 0.0
33299 C9 29.5846 24.7175 85.7122 C 0.0 **** 0.0
33300 C10 31.6946 25.0001 87.3168 C 0.0 **** 0.0
33301 C11 32.6125 25.9047 87.9067 C 0.0 **** 0.0
33302 C12 32.7038 27.1605 87.3218 C 0.0 **** 0.0
33303 C13 32.0137 27.4802 86.0986 C 0.0 **** 0.0
33304 C14 32.3191 28.7782 85.3503 C 0.0 **** 0.0
33305 C15 33.6255 29.4514 85.7888 C 0.0 **** 0.0
33306 C16 33.6504 29.5386 87.3367 C 0.0 **** 0.0
33307 C17 33.5744 28.1509 87.9532 C 0.0 **** 0.0
33308 C18 34.1391 27.8592 89.191 C 0.0 **** 0.0
33309 C19 34.0234 26.6079 89.8259 C 0.0 **** 0.0
33310 C20 33.3691 25.5512 89.0858 C 0.0 **** 0.0
33311 C21 33.2642 24.1978 89.4939 C 0.0 **** 0.0
33312 C22 32.2175 23.4178 89.0484 C 0.0 **** 0.0
33313 C23 31.4551 23.7598 87.9491 C 0.0 **** 0.0
33314 C24 34.2707 26.5915 91.3265 C 0.0 **** 0.0
33315 C25 35.4963 27.3948 91.7219 C 0.0 **** 0.0
33316 C26 35.6698 28.6003 91.0233 C 0.0 **** 0.0
33317 C27 34.8329 28.9572 89.88 C 0.0 **** 0.0
33318 C28 36.6576 29.5384 91.4139 C 0.0 **** 0.0
33319 C29 37.6301 29.1237 92.3459 C 0.0 **** 0.0
33320 C30 37.6129 27.8189 92.8627 C 0.0 **** 0.0
33321 C31 36.5034 26.9634 92.666 C 0.0 **** 0.0
33322 C32 38.7989 27.3247 93.6381 C 0.0 **** 0.0
33323 C33 40.0725 28.1295 93.7559 C 0.0 **** 0.0
33324 C34 40.089 29.4124 92.8544 C 0.0 **** 0.0
33325 C35 38.6951 30.1022 92.8326 C 0.0 **** 0.0
33326 C36 36.4843 25.7446 93.4193 C 0.0 **** 0.0
33327 C37 37.5763 25.3836 94.2639 C 0.0 **** 0.0
33328 C38 38.7316 26.1182 94.3591 C 0.0 **** 0.0
33329 C39 32.0592 22.2193 89.849 C 0.0 **** 0.0
33330 C40 33.2272 22.3182 90.6682 C 0.0 **** 0.0
33331 C41 33.9268 23.4506 90.4202 C 0.0 **** 0.0
33332 C42 35.2205 23.601 90.8392 C 0.0 **** 0.0
33333 C43 35.7645 22.6141 91.696 C 0.0 **** 0.0
33334 C44 34.9614 21.5133 92.077 C 0.0 **** 0.0
33335 C45 33.6792 21.3614 91.5146 C 0.0 **** 0.0
33336 C46 32.8771 20.2711 91.8718 C 0.0 **** 0.0
33337 C47 33.2952 19.3317 92.8376 C 0.0 **** 0.0
33338 C48 34.6224 19.4108 93.2701 C 0.0 **** 0.0
33339 C49 35.4415 20.5012 92.9391 C 0.0 **** 0.0
33340 C50 36.7742 20.6506 93.4239 C 0.0 **** 0.0
33341 C51 37.5463 21.7704 93.0256 C 0.0 **** 0.0
33342 C52 37.0553 22.7773 92.1965 C 0.0 **** 0.0
33343 O53 25.7755 27.0433 83.4446 O 0.0 **** 0.0
33344 C54 27.3397 29.4211 83.1058 C 0.0 **** 0.0
33345 O55 30.5216 22.8795 87.4367 O 0.0 **** 0.0
33346 C56 32.3611 18.2383 93.3115 C 0.0 **** 0.0
33347 C57 31.8249 18.4809 94.7038 C 0.0 **** 0.0
33348 O58 37.4385 24.2571 95.0886 O 0.0 **** 0.0
33349 O59 36.6905 30.8097 90.8447 O 0.0 **** 0.0
33350 O60 37.401 19.7925 94.2985 O 0.0 **** 0.0
33351 H61 27.091 24.9734 84.4844 H 0.0 **** 0.0
33352 H62 29.9746 28.9281 83.8061 H 0.0 **** 0.0
33353 H63 29.8312 23.8365 85.0689 H 0.0 **** 0.0
33354 H64 28.9057 24.4442 86.5218 H 0.0 **** 0.0
33355 H65 32.468 28.6133 84.2577 H 0.0 **** 0.0
33356 H66 31.4343 29.4653 85.5494 H 0.0 **** 0.0
33357 H67 34.5093 28.8831 85.3183 H 0.0 **** 0.0
33358 H68 33.6986 30.4595 85.3231 H 0.0 **** 0.0
33359 H69 34.5152 30.1825 87.5274 H 0.0 **** 0.0
33360 H70 32.7349 30.0757 87.638 H 0.0 **** 0.0
33361 H71 33.3307 26.9708 91.7745 H 0.0 **** 0.0
33362 H72 34.134 29.7613 90.0819 H 0.0 **** 0.0
33363 H73 40.1866 28.4182 94.81 H 0.0 **** 0.0
33364 H74 40.9636 27.509 93.4696 H 0.0 **** 0.0
33365 H75 40.8759 30.1369 93.2682 H 0.0 **** 0.0
33366 H76 40.3896 29.1058 91.8131 H 0.0 **** 0.0
33367 H77 38.4263 30.3196 93.8682 H 0.0 **** 0.0
33368 H78 38.7864 31.0331 92.2675 H 0.0 **** 0.0
33369 H79 35.5596 25.1624 93.4628 H 0.0 **** 0.0
33370 H80 39.5395 25.768 94.951 H 0.0 **** 0.0
33371 H81 31.0928 22.2679 90.3876 H 0.0 **** 0.0
33372 H82 32.0993 21.2698 89.2465 H 0.0 **** 0.0
33373 H83 35.8214 24.4509 90.5187 H 0.0 **** 0.0
33374 H84 31.9326 20.1413 91.4572 H 0.0 **** 0.0
33375 H85 35.0214 18.6262 93.9028 H 0.0 **** 0.0
33376 H86 38.546 21.884 93.3447 H 0.0 **** 0.0
33377 H87 37.6373 23.646 91.8919 H 0.0 **** 0.0
33378 H88 25.2338 26.2213 83.7102 H 0.0 **** 0.0
33379 H89 26.7784 29.0843 82.2277 H 0.0 **** 0.0
33380 H90 28.1811 30.14 82.8359 H 0.0 **** 0.0
33381 H91 26.7084 29.8318 83.9333 H 0.0 **** 0.0
33382 H92 30.1737 22.2216 88.1045 H 0.0 **** 0.0
33383 H93 31.519 18.1428 92.5669 H 0.0 **** 0.0
33384 H94 30.7986 18.0736 94.7539 H 0.0 **** 0.0
33385 H95 31.7641 19.5723 94.9182 H 0.0 **** 0.0
33386 H96 32.4309 17.9464 95.432 H 0.0 **** 0.0
33387 H97 36.58 23.7446 94.9728 H 0.0 **** 0.0
33388 H98 35.8203 31.1774 90.4186 H 0.0 **** 0.0
33389 H99 36.8155 19.1527 94.8226 H 0.0 **** 0.0
33390 H100 34.2673 25.6007 91.7328 H 0.0 **** 0.0
33391 H101 35.6114 29.324 89.1497 H 0.0 **** 0.0
33392 H102 32.8543 17.2636 93.2512 H 0.0 **** 0.0
33393 C1 -2.33969 15.4322 20.961 C 0.0 **** 0.0
33394 C2 -1.3193 14.4836 20.7833 C 0.0 **** 0.0
33395 C3 -1.03743 13.9766 19.5276 C 0.0 **** 0.0
33396 C4 -1.69905 14.4127 18.4141 C 0.0 **** 0.0
33397 C5 -2.85101 15.251 18.5563 C 0.0 **** 0.0
33398 C6 -3.16918 15.7764 19.8247 C 0.0 **** 0.0
33399 C7 -0.932062 13.9648 17.1961 C 0.0 **** 0.0
33400 C8 0.159609 13.1862 17.6547 C 0.0 **** 0.0
33401 C9 0.152362 13.1064 19.1848 C 0.0 **** 0.0
33402 C10 1.16492 12.7659 16.7575 C 0.0 **** 0.0
33403 C11 1.09433 13.2136 15.3791 C 0.0 **** 0.0
33404 C12 -0.03256 13.9637 14.9318 C 0.0 **** 0.0
33405 C13 -1.09993 14.2621 15.8193 C 0.0 **** 0.0
33406 C14 -2.30516 15.072 15.3108 C 0.0 **** 0.0
33407 C15 -2.45187 14.9778 13.8113 C 0.0 **** 0.0
33408 C16 -1.19518 15.2879 13.0366 C 0.0 **** 0.0
33409 C17 -0.0200674 14.4962 13.5424 C 0.0 **** 0.0
33410 C18 1.185 14.403 12.7669 C 0.0 **** 0.0
33411 C19 2.25736 13.5859 13.1897 C 0.0 **** 0.0
33412 C20 2.11869 12.8624 14.4226 C 0.0 **** 0.0
33413 C21 3.07235 11.9004 14.8915 C 0.0 **** 0.0
33414 C22 3.24781 11.7037 16.26 C 0.0 **** 0.0
33415 C23 2.27398 12.0482 17.2059 C 0.0 **** 0.0
33416 C24 3.58034 13.674 12.4244 C 0.0 **** 0.0
33417 C25 3.77956 14.8063 11.3896 C 0.0 **** 0.0
33418 C26 2.66993 15.5638 10.9338 C 0.0 **** 0.0
33419 C27 1.30993 15.3223 11.5825 C 0.0 **** 0.0
33420 C28 2.85012 16.6865 10.0597 C 0.0 **** 0.0
33421 C29 4.13873 17.055 9.64892 C 0.0 **** 0.0
33422 C30 5.19283 16.1606 9.83278 C 0.0 **** 0.0
33423 C31 5.0567 15.0505 10.7013 C 0.0 **** 0.0
33424 C32 6.42802 16.3941 9.09892 C 0.0 **** 0.0
33425 C33 6.56457 17.3985 7.97575 C 0.0 **** 0.0
33426 C34 5.20483 18.079 7.63535 C 0.0 **** 0.0
33427 C35 4.41621 18.3267 8.90775 C 0.0 **** 0.0
33428 C36 6.22301 14.2916 10.9852 C 0.0 **** 0.0
33429 C37 7.42569 14.5517 10.3459 C 0.0 **** 0.0
33430 C38 7.53002 15.6674 9.47078 C 0.0 **** 0.0
33431 C39 4.54655 11.0576 16.5318 C 0.0 **** 0.0
33432 C40 4.97612 10.7578 15.1229 C 0.0 **** 0.0
33433 C41 4.05249 11.2174 14.2255 C 0.0 **** 0.0
33434 C42 4.04402 10.6978 12.9148 C 0.0 **** 0.0
33435 C43 5.19042 10.0047 12.4577 C 0.0 **** 0.0
33436 C44 6.30117 9.80557 13.3635 C 0.0 **** 0.0
33437 C45 6.23599 10.2283 14.704 C 0.0 **** 0.0
33438 C46 7.28621 9.93115 15.6047 C 0.0 **** 0.0
33439 C47 8.48743 9.28013 15.1423 C 0.0 **** 0.0
33440 C48 8.58734 8.98449 13.7636 C 0.0 **** 0.0
33441 C49 7.51428 9.23233 12.8674 C 0.0 **** 0.0
33442 C50 7.57412 8.85491 11.4971 C 0.0 **** 0.0
33443 C51 6.48603 9.05647 10.6539 C 0.0 **** 0.0
33444 C52 5.30514 9.65117 11.1263 C 0.0 **** 0.0
33445 O53 -2.58415 15.9649 22.2352 O 0.0 **** 0.0
33446 C54 -4.34163 16.6955 20.0087 C 0.0 **** 0.0
33447 O55 2.35707 11.6472 18.5319 O 0.0 **** 0.0
33448 C56 9.6287 8.876 16.0938 C 0.0 **** 0.0
33449 C57 10.9594 9.51927 15.674 C 0.0 **** 0.0
33450 O58 8.55435 13.7694 10.5405 O 0.0 **** 0.0
33451 O59 1.79743 17.4067 9.53617 O 0.0 **** 0.0
33452 O60 8.71584 8.39856 10.8661 O 0.0 **** 0.0
33453 H61 -0.708996 14.2771 21.6217 H 0.0 **** 0.0
33454 H62 -3.36294 15.5811 17.6748 H 0.0 **** 0.0
33455 H63 -0.00233243 12.0781 19.5251 H 0.0 **** 0.0
33456 H64 1.06086 13.5366 19.6531 H 0.0 **** 0.0
33457 H65 -3.24282 14.6524 15.7872 H 0.0 **** 0.0
33458 H66 -2.14163 16.1344 15.6496 H 0.0 **** 0.0
33459 H67 -2.78589 13.932 13.5842 H 0.0 **** 0.0
33460 H68 -3.27436 15.7253 13.5716 H 0.0 **** 0.0
33461 H69 -1.421 15.0857 11.9565 H 0.0 **** 0.0
33462 H70 -1.00726 16.3517 13.1108 H 0.0 **** 0.0
33463 H71 4.38274 13.7309 13.1843 H 0.0 **** 0.0
33464 H72 0.995153 16.2956 11.9959 H 0.0 **** 0.0
33465 H73 7.25697 18.2333 8.23317 H 0.0 **** 0.0
33466 H74 6.95087 16.8569 7.06478 H 0.0 **** 0.0
33467 H75 5.39494 19.0558 7.11753 H 0.0 **** 0.0
33468 H76 4.59038 17.4921 6.96244 H 0.0 **** 0.0
33469 H77 5.00837 19.0679 9.57062 H 0.0 **** 0.0
33470 H78 3.46589 18.8335 8.52379 H 0.0 **** 0.0
33471 H79 6.15361 13.44 11.667 H 0.0 **** 0.0
33472 H80 8.52857 15.8434 9.06081 H 0.0 **** 0.0
33473 H81 5.23294 11.8408 16.9285 H 0.0 **** 0.0
33474 H82 4.46662 10.1209 17.1724 H 0.0 **** 0.0
33475 H83 3.15942 10.818 12.2911 H 0.0 **** 0.0
33476 H84 7.1947 10.1962 16.6616 H 0.0 **** 0.0
33477 H85 9.49311 8.48206 13.4387 H 0.0 **** 0.0
33478 H86 6.58222 8.85324 9.61102 H 0.0 **** 0.0
33479 H87 4.53691 9.85318 10.3423 H 0.0 **** 0.0
33480 H88 -2.0659 15.5017 22.9924 H 0.0 **** 0.0
33481 H89 -4.73937 17.1389 19.0573 H 0.0 **** 0.0
33482 H90 -4.11264 17.5969 20.6518 H 0.0 **** 0.0
33483 H91 -5.16573 16.1477 20.4855 H 0.0 **** 0.0
33484 H92 3.01585 10.9085 18.6494 H 0.0 **** 0.0
33485 H93 9.39261 9.23948 17.135 H 0.0 **** 0.0
33486 H94 10.8375 10.5169 15.2394 H 0.0 **** 0.0
33487 H95 11.4471 8.88483 14.9698 H 0.0 **** 0.0
33488 H96 11.545 9.62347 16.595 H 0.0 **** 0.0
33489 H97 8.39531 13.0129 11.1927 H 0.0 **** 0.0
33490 H98 0.882732 17.0769 9.79293 H 0.0 **** 0.0
33491 H99 9.5882 8.64313 11.325 H 0.0 **** 0.0
33492 H100 3.70558 12.7539 11.7273 H 0.0 **** 0.0
33493 H101 0.511536 15.0171 10.8502 H 0.0 **** 0.0
33494 H102 9.7912 7.77991 16.0648 H 0.0 **** 0.0
33495 C1 87.4677 44.5376 73.8073 C 0.0 **** 0.0
33496 C2 87.4545 43.1132 73.8708 C 0.0 **** 0.0
33497 C3 88.5072 42.4011 73.4235 C 0.0 **** 0.0
33498 C4 89.5764 43.0507 72.8669 C 0.0 **** 0.0
33499 C5 89.7004 44.4425 72.9202 C 0.0 **** 0.0
33500 C6 88.604 45.1966 73.3874 C 0.0 **** 0.0
33501 C7 90.4701 42.0187 72.4048 C 0.0 **** 0.0
33502 C8 89.9782 40.7893 72.8263 C 0.0 **** 0.0
33503 C9 88.6736 40.9396 73.5211 C 0.0 **** 0.0
33504 C10 90.6392 39.5787 72.5302 C 0.0 **** 0.0
33505 C11 91.8357 39.641 71.7501 C 0.0 **** 0.0
33506 C12 92.3958 40.9193 71.3695 C 0.0 **** 0.0
33507 C13 91.7022 42.1023 71.706 C 0.0 **** 0.0
33508 C14 92.2749 43.4458 71.3077 C 0.0 **** 0.0
33509 C15 93.3598 43.3535 70.2088 C 0.0 **** 0.0
33510 C16 94.4 42.3293 70.5199 C 0.0 **** 0.0
33511 C17 93.7673 40.9675 70.785 C 0.0 **** 0.0
33512 C18 94.5365 39.7968 70.777 C 0.0 **** 0.0
33513 C19 93.9223 38.5447 71.1602 C 0.0 **** 0.0
33514 C20 92.5637 38.4774 71.499 C 0.0 **** 0.0
33515 C21 91.8994 37.2482 71.6847 C 0.0 **** 0.0
33516 C22 90.835 37.1342 72.5742 C 0.0 **** 0.0
33517 C23 90.153 38.313 72.9958 C 0.0 **** 0.0
33518 C24 94.7631 37.3303 71.4277 C 0.0 **** 0.0
33519 C25 96.2458 37.4316 71.1212 C 0.0 **** 0.0
33520 C26 96.7949 38.6003 70.5057 C 0.0 **** 0.0
33521 C27 95.9858 39.849 70.394 C 0.0 **** 0.0
33522 C28 98.1389 38.607 70.0743 C 0.0 **** 0.0
33523 C29 98.9952 37.5399 70.434 C 0.0 **** 0.0
33524 C30 98.4206 36.372 70.9951 C 0.0 **** 0.0
33525 C31 97.0874 36.3216 71.3735 C 0.0 **** 0.0
33526 C32 99.2013 35.0886 71.0697 C 0.0 **** 0.0
33527 C33 100.67 35.0811 70.6598 C 0.0 **** 0.0
33528 C34 101.016 36.268 69.7508 C 0.0 **** 0.0
33529 C35 100.498 37.6077 70.33 C 0.0 **** 0.0
33530 C36 96.6013 35.1732 72.0097 C 0.0 **** 0.0
33531 C37 97.3164 34.0202 72.0585 C 0.0 **** 0.0
33532 C38 98.5931 33.9517 71.554 C 0.0 **** 0.0
33533 C39 90.2383 35.748 72.4512 C 0.0 **** 0.0
33534 C40 91.0275 35.1794 71.3297 C 0.0 **** 0.0
33535 C41 91.8766 36.166 70.8639 C 0.0 **** 0.0
33536 C42 92.2833 36.2041 69.5529 C 0.0 **** 0.0
33537 C43 92.0028 35.1427 68.753 C 0.0 **** 0.0
33538 C44 91.3473 33.9992 69.2483 C 0.0 **** 0.0
33539 C45 90.8184 34.0206 70.5653 C 0.0 **** 0.0
33540 C46 90.1928 32.8808 71.0296 C 0.0 **** 0.0
33541 C47 90.1792 31.6645 70.2646 C 0.0 **** 0.0
33542 C48 90.5598 31.7118 68.9402 C 0.0 **** 0.0
33543 C49 91.1279 32.862 68.394 C 0.0 **** 0.0
33544 C50 91.5157 32.9504 67.016 C 0.0 **** 0.0
33545 C51 92.0813 34.1279 66.5688 C 0.0 **** 0.0
33546 C52 92.3895 35.185 67.4148 C 0.0 **** 0.0
33547 O53 86.3593 45.2234 74.1856 O 0.0 **** 0.0
33548 C54 88.685 46.6916 73.4047 C 0.0 **** 0.0
33549 O55 88.9792 38.1711 73.7979 O 0.0 **** 0.0
33550 C56 89.624 30.3981 70.9173 C 0.0 **** 0.0
33551 C57 90.7336 29.4737 71.3222 C 0.0 **** 0.0
33552 O58 96.7635 32.9088 72.632 O 0.0 **** 0.0
33553 O59 98.6936 39.6828 69.3235 O 0.0 **** 0.0
33554 O60 91.2775 31.9644 66.0471 O 0.0 **** 0.0
33555 H61 86.5738 42.5916 74.2748 H 0.0 **** 0.0
33556 H62 90.5585 44.973 72.5763 H 0.0 **** 0.0
33557 H63 87.8269 40.4511 72.9669 H 0.0 **** 0.0
33558 H64 88.6889 40.6231 74.5506 H 0.0 **** 0.0
33559 H65 91.3714 43.8619 70.8373 H 0.0 **** 0.0
33560 H66 92.5749 44.0297 72.2161 H 0.0 **** 0.0
33561 H67 92.868 43.112 69.2296 H 0.0 **** 0.0
33562 H68 93.7853 44.3772 70.1056 H 0.0 **** 0.0
33563 H69 95.0972 42.3413 69.6773 H 0.0 **** 0.0
33564 H70 94.9536 42.6712 71.4286 H 0.0 **** 0.0
33565 H71 94.6579 37.0895 72.5274 H 0.0 **** 0.0
33566 H72 96.4656 40.6327 70.977 H 0.0 **** 0.0
33567 H73 101.309 35.0542 71.5231 H 0.0 **** 0.0
33568 H74 100.918 34.1426 70.0849 H 0.0 **** 0.0
33569 H75 102.126 36.2598 69.5658 H 0.0 **** 0.0
33570 H76 100.648 36.0979 68.7421 H 0.0 **** 0.0
33571 H77 100.862 37.7251 71.3771 H 0.0 **** 0.0
33572 H78 100.902 38.4076 69.7029 H 0.0 **** 0.0
33573 H79 95.6528 35.1388 72.4463 H 0.0 **** 0.0
33574 H80 99.163 33.0197 71.6161 H 0.0 **** 0.0
33575 H81 90.4419 35.2105 73.4156 H 0.0 **** 0.0
33576 H82 89.1433 35.7132 72.2362 H 0.0 **** 0.0
33577 H83 92.644 37.1625 69.1633 H 0.0 **** 0.0
33578 H84 89.8887 32.8893 72.092 H 0.0 **** 0.0
33579 H85 90.4062 30.7841 68.3781 H 0.0 **** 0.0
33580 H86 92.2905 34.2739 65.5083 H 0.0 **** 0.0
33581 H87 92.8939 36.0476 67.0036 H 0.0 **** 0.0
33582 H88 85.5664 44.6364 74.3689 H 0.0 **** 0.0
33583 H89 88.2554 47.1623 74.2975 H 0.0 **** 0.0
33584 H90 88.1499 47.1574 72.5345 H 0.0 **** 0.0
33585 H91 89.7351 47.0446 73.348 H 0.0 **** 0.0
33586 H92 88.8551 37.2613 74.176 H 0.0 **** 0.0
33587 H93 89.0543 30.6806 71.8198 H 0.0 **** 0.0
33588 H94 90.3545 28.4123 71.6276 H 0.0 **** 0.0
33589 H95 91.336 29.9333 72.184 H 0.0 **** 0.0
33590 H96 91.4315 29.2487 70.4584 H 0.0 **** 0.0
33591 H97 95.841 33.011 72.9848 H 0.0 **** 0.0
33592 H98 97.9935 40.3102 68.948 H 0.0 **** 0.0
33593 H99 90.8397 31.1334 66.3522 H 0.0 **** 0.0
33594 H100 94.4088 36.5457 70.8221 H 0.0 **** 0.0
33595 H101 95.971 40.152 69.3161 H 0.0 **** 0.0
33596 H102 88.9986 29.8641 70.2289 H 0.0 **** 0.0
33597 C1 37.3212 41.1282 103.95 C 0.0 **** 0.0
33598 C2 37.5753 39.7291 103.844 C 0.0 **** 0.0
33599 C3 36.543 38.9376 103.423 C 0.0 **** 0.0
33600 C4 35.2635 39.4144 103.271 C 0.0 **** 0.0
33601 C5 35.0304 40.7666 103.251 C 0.0 **** 0.0
33602 C6 36.1056 41.6669 103.554 C 0.0 **** 0.0
33603 C7 34.3399 38.2975 103.17 C 0.0 **** 0.0
33604 C8 35.0591 37.1244 103.222 C 0.0 **** 0.0
33605 C9 36.5283 37.4425 103.439 C 0.0 **** 0.0
33606 C10 34.4502 35.8747 103.254 C 0.0 **** 0.0
33607 C11 33.0512 35.8469 102.934 C 0.0 **** 0.0
33608 C12 32.2994 37.0548 102.986 C 0.0 **** 0.0
33609 C13 32.9479 38.2679 103.228 C 0.0 **** 0.0
33610 C14 32.113 39.5361 103.404 C 0.0 **** 0.0
33611 C15 30.6377 39.2443 103.612 C 0.0 **** 0.0
33612 C16 30.0576 38.3352 102.586 C 0.0 **** 0.0
33613 C17 30.8335 37.0209 102.615 C 0.0 **** 0.0
33614 C18 30.358 35.8368 101.987 C 0.0 **** 0.0
33615 C19 31.1812 34.687 101.82 C 0.0 **** 0.0
33616 C20 32.4177 34.6179 102.522 C 0.0 **** 0.0
33617 C21 33.0896 33.4797 102.978 C 0.0 **** 0.0
33618 C22 34.4292 33.5147 103.408 C 0.0 **** 0.0
33619 C23 35.1255 34.681 103.494 C 0.0 **** 0.0
33620 C24 30.9344 33.8335 100.563 C 0.0 **** 0.0
33621 C25 29.4283 33.6192 100.379 C 0.0 **** 0.0
33622 C26 28.4987 34.5536 100.795 C 0.0 **** 0.0
33623 C27 28.9859 35.8826 101.399 C 0.0 **** 0.0
33624 C28 27.0979 34.2946 100.728 C 0.0 **** 0.0
33625 C29 26.6445 33.0343 100.299 C 0.0 **** 0.0
33626 C30 27.5866 32.136 99.6996 C 0.0 **** 0.0
33627 C31 28.9598 32.3842 99.7967 C 0.0 **** 0.0
33628 C32 27.1133 30.877 99.0818 C 0.0 **** 0.0
33629 C33 25.6616 30.4048 99.2271 C 0.0 **** 0.0
33630 C34 24.8067 31.2907 100.149 C 0.0 **** 0.0
33631 C35 25.1532 32.784 100.051 C 0.0 **** 0.0
33632 C36 29.8202 31.5015 99.1264 C 0.0 **** 0.0
33633 C37 29.3536 30.3374 98.4488 C 0.0 **** 0.0
33634 C38 27.9879 29.986 98.4339 C 0.0 **** 0.0
33635 C39 34.9031 32.1312 103.742 C 0.0 **** 0.0
33636 C40 33.6098 31.3944 103.629 C 0.0 **** 0.0
33637 C41 32.578 32.2218 103.197 C 0.0 **** 0.0
33638 C42 31.2563 31.8008 103.166 C 0.0 **** 0.0
33639 C43 30.9908 30.4534 103.532 C 0.0 **** 0.0
33640 C44 32.0691 29.5843 103.946 C 0.0 **** 0.0
33641 C45 33.3691 30.0754 103.977 C 0.0 **** 0.0
33642 C46 34.439 29.2302 104.183 C 0.0 **** 0.0
33643 C47 34.2171 27.8841 104.488 C 0.0 **** 0.0
33644 C48 32.937 27.4127 104.559 C 0.0 **** 0.0
33645 C49 31.8523 28.2134 104.236 C 0.0 **** 0.0
33646 C50 30.4935 27.754 104.204 C 0.0 **** 0.0
33647 C51 29.4404 28.6418 103.841 C 0.0 **** 0.0
33648 C52 29.6985 29.9384 103.402 C 0.0 **** 0.0
33649 O53 38.3156 41.9816 104.443 O 0.0 **** 0.0
33650 C54 35.8342 43.1473 103.436 C 0.0 **** 0.0
33651 O55 36.3678 34.7835 104.124 O 0.0 **** 0.0
33652 C56 35.3635 26.982 104.679 C 0.0 **** 0.0
33653 C57 35.7205 26.8432 106.151 C 0.0 **** 0.0
33654 O58 30.2608 29.4969 97.7794 O 0.0 **** 0.0
33655 O59 26.1593 35.2602 101.059 O 0.0 **** 0.0
33656 O60 30.1229 26.4849 104.648 O 0.0 **** 0.0
33657 H61 38.5004 39.3108 104.213 H 0.0 **** 0.0
33658 H62 34.0591 41.154 103.051 H 0.0 **** 0.0
33659 H63 36.8028 37.2017 104.475 H 0.0 **** 0.0
33660 H64 37.1334 37.042 102.628 H 0.0 **** 0.0
33661 H65 32.5096 40.082 104.25 H 0.0 **** 0.0
33662 H66 32.1929 40.1138 102.497 H 0.0 **** 0.0
33663 H67 30.5502 38.7247 104.604 H 0.0 **** 0.0
33664 H68 30.0833 40.2034 103.645 H 0.0 **** 0.0
33665 H69 28.9874 38.1863 102.828 H 0.0 **** 0.0
33666 H70 30.202 38.7351 101.576 H 0.0 **** 0.0
33667 H71 31.361 34.4228 99.6725 H 0.0 **** 0.0
33668 H72 28.875 36.6985 100.581 H 0.0 **** 0.0
33669 H73 25.1739 30.3633 98.2174 H 0.0 **** 0.0
33670 H74 25.5815 29.3953 99.6738 H 0.0 **** 0.0
33671 H75 23.7127 31.2305 99.8915 H 0.0 **** 0.0
33672 H76 24.9853 30.9291 101.207 H 0.0 **** 0.0
33673 H77 24.8081 33.1771 99.0754 H 0.0 **** 0.0
33674 H78 24.558 33.2106 100.86 H 0.0 **** 0.0
33675 H79 30.9124 31.6455 99.0624 H 0.0 **** 0.0
33676 H80 27.6371 29.0028 97.9544 H 0.0 **** 0.0
33677 H81 35.5596 31.8373 102.906 H 0.0 **** 0.0
33678 H82 35.431 32.106 104.779 H 0.0 **** 0.0
33679 H83 30.3917 32.4107 102.971 H 0.0 **** 0.0
33680 H84 35.4608 29.569 104.14 H 0.0 **** 0.0
33681 H85 32.8036 26.3931 104.851 H 0.0 **** 0.0
33682 H86 28.3937 28.3312 103.862 H 0.0 **** 0.0
33683 H87 28.945 30.5605 103.033 H 0.0 **** 0.0
33684 H88 39.1595 41.4881 104.584 H 0.0 **** 0.0
33685 H89 36.7911 43.7487 103.439 H 0.0 **** 0.0
33686 H90 35.212 43.4531 104.32 H 0.0 **** 0.0
33687 H91 35.3499 43.3808 102.492 H 0.0 **** 0.0
33688 H92 36.7009 33.9071 104.469 H 0.0 **** 0.0
33689 H93 35.2557 25.9387 104.276 H 0.0 **** 0.0
33690 H94 36.6497 26.2382 106.324 H 0.0 **** 0.0
33691 H95 34.8815 26.3275 106.733 H 0.0 **** 0.0
33692 H96 35.967 27.7719 106.612 H 0.0 **** 0.0
33693 H97 31.1871 29.8763 97.6439 H 0.0 **** 0.0
33694 H98 26.5278 36.2151 101.06 H 0.0 **** 0.0
33695 H99 30.7723 25.9243 105.097 H 0.0 **** 0.0
33696 H100 31.5539 32.8797 100.608 H 0.0 **** 0.0
33697 H101 28.3584 36.0578 102.305 H 0.0 **** 0.0
33698 H102 36.2129 27.4352 104.181 H 0.0 **** 0.0
33699 C1 8.78261 37.3154 76.3533 C 0.0 **** 0.0
33700 C2 9.9641 37.9883 76.5407 C 0.0 **** 0.0
33701 C3 11.1797 37.297 76.4827 C 0.0 **** 0.0
33702 C4 11.2524 35.9208 76.2927 C 0.0 **** 0.0
33703 C5 10.0424 35.2213 76.0573 C 0.0 **** 0.0
33704 C6 8.80553 35.9054 76.1018 C 0.0 **** 0.0
33705 C7 12.7055 35.5276 76.2878 C 0.0 **** 0.0
33706 C8 13.4491 36.6853 76.4851 C 0.0 **** 0.0
33707 C9 12.5253 37.8598 76.5684 C 0.0 **** 0.0
33708 C10 14.8797 36.6356 76.604 C 0.0 **** 0.0
33709 C11 15.4944 35.3784 76.4085 C 0.0 **** 0.0
33710 C12 14.7122 34.2181 76.1986 C 0.0 **** 0.0
33711 C13 13.329 34.2538 76.1304 C 0.0 **** 0.0
33712 C14 12.5566 32.9914 75.844 C 0.0 **** 0.0
33713 C15 13.3447 31.8728 75.175 C 0.0 **** 0.0
33714 C16 14.6816 31.6346 75.7805 C 0.0 **** 0.0
33715 C17 15.4456 32.9578 75.8525 C 0.0 **** 0.0
33716 C18 16.7363 33.1466 75.2454 C 0.0 **** 0.0
33717 C19 17.3939 34.382 75.3822 C 0.0 **** 0.0
33718 C20 16.9005 35.3222 76.2831 C 0.0 **** 0.0
33719 C21 17.6048 36.4103 76.7265 C 0.0 **** 0.0
33720 C22 16.9995 37.6134 77.0572 C 0.0 **** 0.0
33721 C23 15.6268 37.7679 76.9241 C 0.0 **** 0.0
33722 C24 18.303 34.8378 74.2402 C 0.0 **** 0.0
33723 C25 19.2517 33.7333 73.7244 C 0.0 **** 0.0
33724 C26 18.6368 32.4378 73.6319 C 0.0 **** 0.0
33725 C27 17.314 32.1032 74.3036 C 0.0 **** 0.0
33726 C28 19.2944 31.4347 72.898 C 0.0 **** 0.0
33727 C29 20.6553 31.603 72.5545 C 0.0 **** 0.0
33728 C30 21.3285 32.798 72.88 C 0.0 **** 0.0
33729 C31 20.6326 33.9016 73.3781 C 0.0 **** 0.0
33730 C32 22.7905 32.9068 72.5555 C 0.0 **** 0.0
33731 C33 23.6354 31.7372 72.076 C 0.0 **** 0.0
33732 C34 22.9251 30.4095 72.4507 C 0.0 **** 0.0
33733 C35 21.4646 30.4201 71.9831 C 0.0 **** 0.0
33734 C36 21.2783 35.1643 73.4115 C 0.0 **** 0.0
33735 C37 22.6346 35.2858 72.9448 C 0.0 **** 0.0
33736 C38 23.3814 34.1798 72.5607 C 0.0 **** 0.0
33737 C39 18.0187 38.5653 77.558 C 0.0 **** 0.0
33738 C40 19.288 37.6963 77.5517 C 0.0 **** 0.0
33739 C41 18.9489 36.4759 77.0507 C 0.0 **** 0.0
33740 C42 19.7722 35.3964 77.152 C 0.0 **** 0.0
33741 C43 20.8872 35.4759 77.9534 C 0.0 **** 0.0
33742 C44 21.2769 36.737 78.4849 C 0.0 **** 0.0
33743 C45 20.5143 37.8786 78.1772 C 0.0 **** 0.0
33744 C46 21.0076 39.1629 78.5261 C 0.0 **** 0.0
33745 C47 22.2354 39.2723 79.245 C 0.0 **** 0.0
33746 C48 22.8287 38.0952 79.7125 C 0.0 **** 0.0
33747 C49 22.3009 36.8028 79.3845 C 0.0 **** 0.0
33748 C50 22.9021 35.5778 79.8582 C 0.0 **** 0.0
33749 C51 22.5668 34.3691 79.3122 C 0.0 **** 0.0
33750 C52 21.5575 34.3004 78.3462 C 0.0 **** 0.0
33751 O53 7.56443 37.9552 76.5307 O 0.0 **** 0.0
33752 C54 7.55784 35.0953 76.0215 C 0.0 **** 0.0
33753 O55 15.0506 39.0487 77.0377 O 0.0 **** 0.0
33754 C56 22.8681 40.6188 79.6243 C 0.0 **** 0.0
33755 C57 24.4001 40.6134 79.3451 C 0.0 **** 0.0
33756 O58 23.2131 36.5273 72.8315 O 0.0 **** 0.0
33757 O59 18.6214 30.2648 72.5332 O 0.0 **** 0.0
33758 O60 23.8614 35.5266 80.852 O 0.0 **** 0.0
33759 H61 9.92686 39.0298 76.7526 H 0.0 **** 0.0
33760 H62 10.066 34.1456 75.9885 H 0.0 **** 0.0
33761 H63 12.6133 38.3979 77.5187 H 0.0 **** 0.0
33762 H64 12.6266 38.6057 75.7103 H 0.0 **** 0.0
33763 H65 12.192 32.6163 76.8573 H 0.0 **** 0.0
33764 H66 11.6353 33.0962 75.1519 H 0.0 **** 0.0
33765 H67 12.7824 30.9561 75.4162 H 0.0 **** 0.0
33766 H68 13.3384 31.997 74.0758 H 0.0 **** 0.0
33767 H69 14.5209 31.2486 76.8303 H 0.0 **** 0.0
33768 H70 15.1545 30.8753 75.1733 H 0.0 **** 0.0
33769 H71 17.5783 35.0828 73.4737 H 0.0 **** 0.0
33770 H72 16.6215 31.9812 73.4448 H 0.0 **** 0.0
33771 H73 23.8339 31.7864 70.9698 H 0.0 **** 0.0
33772 H74 24.614 31.797 72.4939 H 0.0 **** 0.0
33773 H75 23.4825 29.5464 72.0926 H 0.0 **** 0.0
33774 H76 22.8005 30.3046 73.5906 H 0.0 **** 0.0
33775 H77 21.4217 30.461 70.8944 H 0.0 **** 0.0
33776 H78 20.9878 29.4571 72.3128 H 0.0 **** 0.0
33777 H79 20.8325 36.0319 73.8666 H 0.0 **** 0.0
33778 H80 24.4161 34.3299 72.2139 H 0.0 **** 0.0
33779 H81 18.1692 39.4653 76.9843 H 0.0 **** 0.0
33780 H82 17.7531 38.7966 78.5998 H 0.0 **** 0.0
33781 H83 19.4223 34.3818 76.8791 H 0.0 **** 0.0
33782 H84 20.4222 40.0254 78.2417 H 0.0 **** 0.0
33783 H85 23.6258 38.1238 80.3951 H 0.0 **** 0.0
33784 H86 23.0217 33.4255 79.6927 H 0.0 **** 0.0
33785 H87 21.3272 33.3037 77.9717 H 0.0 **** 0.0
33786 H88 7.6552 38.9086 76.8151 H 0.0 **** 0.0
33787 H89 7.00255 35.0861 76.9604 H 0.0 **** 0.0
33788 H90 7.73056 34.0185 75.772 H 0.0 **** 0.0
33789 H91 6.88125 35.5087 75.2414 H 0.0 **** 0.0
33790 H92 15.7703 39.7755 77.0668 H 0.0 **** 0.0
33791 H93 22.3619 41.4172 79.0402 H 0.0 **** 0.0
33792 H94 24.8467 41.6824 79.5077 H 0.0 **** 0.0
33793 H95 24.5148 40.3254 78.2848 H 0.0 **** 0.0
33794 H96 24.9242 39.9644 80.0187 H 0.0 **** 0.0
33795 H97 22.5896 37.3323 73.0 H 0.0 **** 0.0
33796 H98 17.6628 30.1435 72.7915 H 0.0 **** 0.0
33797 H99 23.9578 36.3782 81.383 H 0.0 **** 0.0
33798 H100 18.7288 35.8176 74.4218 H 0.0 **** 0.0
33799 H101 17.4093 31.1728 74.8899 H 0.0 **** 0.0
33800 H102 22.7318 40.8244 80.6745 H 0.0 **** 0.0
33801 C1 0.827364 105.892 11.8827 C 0.0 **** 0.0
33802 C2 0.614446 105.509 13.2158 C 0.0 **** 0.0
33803 C3 1.63338 104.823 13.934 C 0.0 **** 0.0
33804 C4 2.81784 104.462 13.3454 C 0.0 **** 0.0
33805 C5 3.06786 104.876 12.0174 C 0.0 **** 0.0
33806 C6 2.12083 105.655 11.3278 C 0.0 **** 0.0
33807 C7 3.63366 103.703 14.3262 C 0.0 **** 0.0
33808 C8 2.91762 103.682 15.4988 C 0.0 **** 0.0
33809 C9 1.60592 104.418 15.3946 C 0.0 **** 0.0
33810 C10 3.30571 102.814 16.5372 C 0.0 **** 0.0
33811 C11 4.57592 102.161 16.4271 C 0.0 **** 0.0
33812 C12 5.43107 102.448 15.3537 C 0.0 **** 0.0
33813 C13 4.89253 103.088 14.1847 C 0.0 **** 0.0
33814 C14 5.63096 103.078 12.8619 C 0.0 **** 0.0
33815 C15 6.86135 102.149 12.8828 C 0.0 **** 0.0
33816 C16 7.73002 102.303 14.2026 C 0.0 **** 0.0
33817 C17 6.82533 102.003 15.4054 C 0.0 **** 0.0
33818 C18 7.22013 101.219 16.5122 C 0.0 **** 0.0
33819 C19 6.30924 100.757 17.4892 C 0.0 **** 0.0
33820 C20 4.95999 101.173 17.3915 C 0.0 **** 0.0
33821 C21 3.95223 100.696 18.2307 C 0.0 **** 0.0
33822 C22 2.92187 101.516 18.6061 C 0.0 **** 0.0
33823 C23 2.51292 102.519 17.7128 C 0.0 **** 0.0
33824 C24 6.83303 100.191 18.809 C 0.0 **** 0.0
33825 C25 8.03839 100.955 19.2223 C 0.0 **** 0.0
33826 C26 8.98246 101.269 18.2532 C 0.0 **** 0.0
33827 C27 8.6479 100.866 16.7899 C 0.0 **** 0.0
33828 C28 10.1796 101.903 18.6158 C 0.0 **** 0.0
33829 C29 10.3404 102.456 19.9097 C 0.0 **** 0.0
33830 C30 9.40947 102.09 20.9176 C 0.0 **** 0.0
33831 C31 8.32481 101.269 20.5992 C 0.0 **** 0.0
33832 C32 9.71717 102.454 22.3117 C 0.0 **** 0.0
33833 C33 10.8776 103.432 22.6548 C 0.0 **** 0.0
33834 C34 11.2353 104.275 21.4005 C 0.0 **** 0.0
33835 C35 11.5138 103.381 20.1973 C 0.0 **** 0.0
33836 C36 7.64607 100.656 21.6491 C 0.0 **** 0.0
33837 C37 8.01054 100.879 22.9927 C 0.0 **** 0.0
33838 C38 8.96614 101.882 23.3225 C 0.0 **** 0.0
33839 C39 2.21207 100.89 19.7857 C 0.0 **** 0.0
33840 C40 2.91388 99.5678 19.8519 C 0.0 **** 0.0
33841 C41 3.87779 99.4704 18.8857 C 0.0 **** 0.0
33842 C42 4.52383 98.2565 18.6168 C 0.0 **** 0.0
33843 C43 4.22534 97.1425 19.3681 C 0.0 **** 0.0
33844 C44 3.29966 97.2575 20.4504 C 0.0 **** 0.0
33845 C45 2.61298 98.4727 20.6745 C 0.0 **** 0.0
33846 C46 1.58096 98.5163 21.6608 C 0.0 **** 0.0
33847 C47 1.23298 97.3908 22.4042 C 0.0 **** 0.0
33848 C48 1.9496 96.202 22.1618 C 0.0 **** 0.0
33849 C49 2.97455 96.1239 21.1873 C 0.0 **** 0.0
33850 C50 3.72176 94.9639 21.0185 C 0.0 **** 0.0
33851 C51 4.70609 94.8712 20.0356 C 0.0 **** 0.0
33852 C52 4.95374 95.9266 19.1475 C 0.0 **** 0.0
33853 O53 -0.144016 106.614 11.2009 O 0.0 **** 0.0
33854 C54 2.45746 106.314 10.0388 C 0.0 **** 0.0
33855 O55 1.37377 103.231 17.9874 O 0.0 **** 0.0
33856 C56 0.220777 97.4536 23.5227 C 0.0 **** 0.0
33857 C57 -0.911157 96.4713 23.3567 C 0.0 **** 0.0
33858 O58 7.29332 100.238 24.014 O 0.0 **** 0.0
33859 O59 11.2432 102.0 17.6847 O 0.0 **** 0.0
33860 O60 3.51894 93.8997 21.8854 O 0.0 **** 0.0
33861 H61 -0.264939 105.805 13.6953 H 0.0 **** 0.0
33862 H62 4.01796 104.718 11.5553 H 0.0 **** 0.0
33863 H63 0.823658 103.623 15.4566 H 0.0 **** 0.0
33864 H64 1.5498 105.306 16.071 H 0.0 **** 0.0
33865 H65 4.91354 102.705 12.0512 H 0.0 **** 0.0
33866 H66 5.97675 104.133 12.6613 H 0.0 **** 0.0
33867 H67 6.50322 101.076 12.822 H 0.0 **** 0.0
33868 H68 7.47889 102.332 11.9978 H 0.0 **** 0.0
33869 H69 8.61674 101.623 14.1164 H 0.0 **** 0.0
33870 H70 8.14386 103.299 14.2986 H 0.0 **** 0.0
33871 H71 6.05381 100.202 19.5623 H 0.0 **** 0.0
33872 H72 9.37806 101.336 16.1089 H 0.0 **** 0.0
33873 H73 10.5697 104.146 23.4538 H 0.0 **** 0.0
33874 H74 11.7318 102.843 23.05 H 0.0 **** 0.0
33875 H75 10.4385 104.944 21.1434 H 0.0 **** 0.0
33876 H76 12.1459 104.861 21.6661 H 0.0 **** 0.0
33877 H77 11.7225 104.024 19.361 H 0.0 **** 0.0
33878 H78 12.3376 102.733 20.4619 H 0.0 **** 0.0
33879 H79 6.87023 99.9867 21.4831 H 0.0 **** 0.0
33880 H80 9.26864 102.032 24.3395 H 0.0 **** 0.0
33881 H81 2.43257 101.475 20.6814 H 0.0 **** 0.0
33882 H82 1.1042 100.794 19.5929 H 0.0 **** 0.0
33883 H83 5.21726 98.1617 17.8081 H 0.0 **** 0.0
33884 H84 1.08054 99.4834 21.8267 H 0.0 **** 0.0
33885 H85 1.6954 95.3488 22.7733 H 0.0 **** 0.0
33886 H86 5.39824 94.0636 19.9955 H 0.0 **** 0.0
33887 H87 5.69086 95.8157 18.365 H 0.0 **** 0.0
33888 H88 -0.953354 106.822 11.7424 H 0.0 **** 0.0
33889 H89 1.94165 107.297 9.97823 H 0.0 **** 0.0
33890 H90 2.19133 105.695 9.22438 H 0.0 **** 0.0
33891 H91 3.53855 106.531 9.95644 H 0.0 **** 0.0
33892 H92 1.11076 103.161 18.9666 H 0.0 **** 0.0
33893 H93 0.642171 97.1448 24.4861 H 0.0 **** 0.0
33894 H94 -1.53444 96.4601 24.2745 H 0.0 **** 0.0
33895 H95 -0.495932 95.4312 23.1696 H 0.0 **** 0.0
33896 H96 -1.48864 96.7393 22.4798 H 0.0 **** 0.0
33897 H97 6.69853 99.5186 23.6415 H 0.0 **** 0.0
33898 H98 12.1377 102.214 18.0889 H 0.0 **** 0.0
33899 H99 4.10812 93.0865 21.7365 H 0.0 **** 0.0
33900 H100 7.1803 99.1338 18.6393 H 0.0 **** 0.0
33901 H101 8.66412 99.7541 16.7711 H 0.0 **** 0.0
33902 H102 -0.220103 98.4346 23.6119 H 0.0 **** 0.0
33903 C1 43.8866 17.4399 65.5443 C 0.0 **** 0.0
33904 C2 43.7085 18.8465 65.5469 C 0.0 **** 0.0
33905 C3 42.4627 19.4306 65.8049 C 0.0 **** 0.0
33906 C4 41.3418 18.6402 65.9288 C 0.0 **** 0.0
33907 C5 41.4592 17.2362 65.8448 C 0.0 **** 0.0
33908 C6 42.713 16.6296 65.601 C 0.0 **** 0.0
33909 C7 40.1916 19.4946 66.0416 C 0.0 **** 0.0
33910 C8 40.6336 20.7962 66.075 C 0.0 **** 0.0
33911 C9 42.138 20.8851 65.928 C 0.0 **** 0.0
33912 C10 39.6955 21.8715 66.23 C 0.0 **** 0.0
33913 C11 38.313 21.5143 66.3329 C 0.0 **** 0.0
33914 C12 37.8925 20.1417 66.3051 C 0.0 **** 0.0
33915 C13 38.8211 19.1165 66.122 C 0.0 **** 0.0
33916 C14 38.3416 17.6957 65.9449 C 0.0 **** 0.0
33917 C15 36.8622 17.5156 65.566 C 0.0 **** 0.0
33918 C16 36.0034 18.4248 66.4871 C 0.0 **** 0.0
33919 C17 36.4504 19.852 66.4085 C 0.0 **** 0.0
33920 C18 35.6178 20.8784 66.8531 C 0.0 **** 0.0
33921 C19 36.1084 22.193 66.9753 C 0.0 **** 0.0
33922 C20 37.3811 22.5263 66.4452 C 0.0 **** 0.0
33923 C21 37.7561 23.8654 66.1994 C 0.0 **** 0.0
33924 C22 39.0814 24.2186 66.1498 C 0.0 **** 0.0
33925 C23 40.0813 23.2245 66.1927 C 0.0 **** 0.0
33926 C24 35.4915 22.9584 68.1467 C 0.0 **** 0.0
33927 C25 33.9961 22.9966 67.9533 C 0.0 **** 0.0
33928 C26 33.3249 21.8179 67.4851 C 0.0 **** 0.0
33929 C27 34.1788 20.5812 67.1489 C 0.0 **** 0.0
33930 C28 31.9152 21.7968 67.3219 C 0.0 **** 0.0
33931 C29 31.1639 22.9852 67.4967 C 0.0 **** 0.0
33932 C30 31.8221 24.1498 68.0193 C 0.0 **** 0.0
33933 C31 33.1918 24.1067 68.3604 C 0.0 **** 0.0
33934 C32 31.0914 25.3966 68.1562 C 0.0 **** 0.0
33935 C33 29.595 25.4096 67.8812 C 0.0 **** 0.0
33936 C34 29.1854 24.4357 66.7529 C 0.0 **** 0.0
33937 C35 29.6726 23.0318 67.1969 C 0.0 **** 0.0
33938 C36 33.7178 25.2211 69.0355 C 0.0 **** 0.0
33939 C37 32.9695 26.4108 69.2469 C 0.0 **** 0.0
33940 C38 31.6554 26.47 68.7724 C 0.0 **** 0.0
33941 C39 39.2617 25.6962 66.2505 C 0.0 **** 0.0
33942 C40 37.867 26.1573 66.1412 C 0.0 **** 0.0
33943 C41 37.0115 25.0623 66.146 C 0.0 **** 0.0
33944 C42 35.647 25.2421 65.8448 C 0.0 **** 0.0
33945 C43 35.1193 26.5894 65.7617 C 0.0 **** 0.0
33946 C44 36.0175 27.6901 65.7733 C 0.0 **** 0.0
33947 C45 37.4043 27.4791 65.8988 C 0.0 **** 0.0
33948 C46 38.2668 28.5614 66.0376 C 0.0 **** 0.0
33949 C47 37.7531 29.8953 66.098 C 0.0 **** 0.0
33950 C48 36.4072 30.0738 65.9428 C 0.0 **** 0.0
33951 C49 35.5024 29.0074 65.7091 C 0.0 **** 0.0
33952 C50 34.1051 29.2427 65.6391 C 0.0 **** 0.0
33953 C51 33.2843 28.1321 65.4722 C 0.0 **** 0.0
33954 C52 33.7439 26.8399 65.6433 C 0.0 **** 0.0
33955 O53 45.131 16.865 65.2418 O 0.0 **** 0.0
33956 C54 42.7167 15.1695 65.3477 C 0.0 **** 0.0
33957 O55 41.4032 23.5624 66.0376 O 0.0 **** 0.0
33958 C56 38.6299 31.0604 66.495 C 0.0 **** 0.0
33959 C57 38.4308 31.4709 67.9596 C 0.0 **** 0.0
33960 O58 33.4801 27.4711 69.9247 O 0.0 **** 0.0
33961 O59 31.2312 20.6589 66.8861 O 0.0 **** 0.0
33962 O60 33.4919 30.4908 65.8048 O 0.0 **** 0.0
33963 H61 44.5806 19.4561 65.422 H 0.0 **** 0.0
33964 H62 40.6567 16.6181 66.081 H 0.0 **** 0.0
33965 H63 42.4293 21.3583 64.9472 H 0.0 **** 0.0
33966 H64 42.5824 21.3579 66.7924 H 0.0 **** 0.0
33967 H65 38.8803 17.2008 65.0737 H 0.0 **** 0.0
33968 H66 38.5435 17.1381 66.9032 H 0.0 **** 0.0
33969 H67 36.747 17.9303 64.5475 H 0.0 **** 0.0
33970 H68 36.5981 16.4116 65.6667 H 0.0 **** 0.0
33971 H69 34.971 18.2775 66.143 H 0.0 **** 0.0
33972 H70 36.0297 18.0656 67.5598 H 0.0 **** 0.0
33973 H71 35.7024 22.461 69.0649 H 0.0 **** 0.0
33974 H72 34.0835 19.9295 68.0904 H 0.0 **** 0.0
33975 H73 29.0031 25.181 68.8487 H 0.0 **** 0.0
33976 H74 29.306 26.4307 67.5628 H 0.0 **** 0.0
33977 H75 28.0816 24.5177 66.7276 H 0.0 **** 0.0
33978 H76 29.5885 24.8124 65.7654 H 0.0 **** 0.0
33979 H77 29.0753 22.808 68.1035 H 0.0 **** 0.0
33980 H78 29.4914 22.3127 66.3494 H 0.0 **** 0.0
33981 H79 34.6788 25.1532 69.5202 H 0.0 **** 0.0
33982 H80 31.1121 27.4231 68.796 H 0.0 **** 0.0
33983 H81 39.687 25.989 67.2383 H 0.0 **** 0.0
33984 H82 39.832 26.1179 65.4701 H 0.0 **** 0.0
33985 H83 34.9991 24.4037 65.7363 H 0.0 **** 0.0
33986 H84 39.2887 28.3915 66.2665 H 0.0 **** 0.0
33987 H85 36.0388 31.0783 66.0113 H 0.0 **** 0.0
33988 H86 32.2225 28.2711 65.3103 H 0.0 **** 0.0
33989 H87 33.0132 26.0261 65.6066 H 0.0 **** 0.0
33990 H88 45.876 17.5565 65.2109 H 0.0 **** 0.0
33991 H89 43.7672 14.7475 65.1953 H 0.0 **** 0.0
33992 H90 42.1687 14.9486 64.4292 H 0.0 **** 0.0
33993 H91 42.2229 14.6645 66.2328 H 0.0 **** 0.0
33994 H92 41.6289 24.552 65.904 H 0.0 **** 0.0
33995 H93 39.7014 30.8322 66.3275 H 0.0 **** 0.0
33996 H94 39.2567 32.1424 68.3112 H 0.0 **** 0.0
33997 H95 38.4986 30.5875 68.639 H 0.0 **** 0.0
33998 H96 37.4851 32.0358 68.0668 H 0.0 **** 0.0
33999 H97 34.4942 27.4773 70.1217 H 0.0 **** 0.0
34000 H98 31.6905 19.7905 67.1353 H 0.0 **** 0.0
34001 H99 34.0215 31.2948 65.5066 H 0.0 **** 0.0
34002 H100 35.8656 23.9694 68.2816 H 0.0 **** 0.0
34003 H101 33.8158 20.1109 66.1575 H 0.0 **** 0.0
34004 H102 38.342 31.932 65.8222 H 0.0 **** 0.0
34005 C1 90.5232 10.1017 12.4795 C 0.0 **** 0.0
34006 C2 91.2969 10.325 11.3021 C 0.0 **** 0.0
34007 C3 90.691 10.9776 10.2515 C 0.0 **** 0.0
34008 C4 89.3926 11.4252 10.2988 C 0.0 **** 0.0
34009 C5 88.5667 10.9794 11.32 C 0.0 **** 0.0
34010 C6 89.1205 10.332 12.4082 C 0.0 **** 0.0
34011 C7 89.056 12.0653 8.98556 C 0.0 **** 0.0
34012 C8 90.1907 11.9348 8.19639 C 0.0 **** 0.0
34013 C9 91.3256 11.3478 8.95563 C 0.0 **** 0.0
34014 C10 90.1893 12.3705 6.87335 C 0.0 **** 0.0
34015 C11 88.9823 13.0336 6.37002 C 0.0 **** 0.0
34016 C12 87.8426 13.1703 7.18669 C 0.0 **** 0.0
34017 C13 87.8661 12.7185 8.53267 C 0.0 **** 0.0
34018 C14 86.649 12.8008 9.42039 C 0.0 **** 0.0
34019 C15 85.4934 13.6641 8.85995 C 0.0 **** 0.0
34020 C16 85.247 13.3432 7.37214 C 0.0 **** 0.0
34021 C17 86.5538 13.6218 6.5897 C 0.0 **** 0.0
34022 C18 86.5696 14.1349 5.26206 C 0.0 **** 0.0
34023 C19 87.7866 14.211 4.55658 C 0.0 **** 0.0
34024 C20 88.9249 13.4497 5.02414 C 0.0 **** 0.0
34025 C21 90.0322 13.028 4.17144 C 0.0 **** 0.0
34026 C22 91.2102 12.5517 4.70821 C 0.0 **** 0.0
34027 C23 91.3668 12.2534 6.07399 C 0.0 **** 0.0
34028 C24 87.8481 15.3316 3.53734 C 0.0 **** 0.0
34029 C25 86.6931 15.2646 2.59444 C 0.0 **** 0.0
34030 C26 85.4239 15.0109 3.15362 C 0.0 **** 0.0
34031 C27 85.2889 14.6215 4.61334 C 0.0 **** 0.0
34032 C28 84.2834 15.159 2.36663 C 0.0 **** 0.0
34033 C29 84.4152 15.5333 1.00388 C 0.0 **** 0.0
34034 C30 85.6503 15.6108 0.400926 C 0.0 **** 0.0
34035 C31 86.8281 15.4692 1.18143 C 0.0 **** 0.0
34036 C32 85.7737 15.9377 -1.02389 C 0.0 **** 0.0
34037 C33 84.5239 16.075 -1.94077 C 0.0 **** 0.0
34038 C34 83.261 15.5473 -1.23232 C 0.0 **** 0.0
34039 C35 83.192 15.9615 0.216678 C 0.0 **** 0.0
34040 C36 88.0797 15.6455 0.577485 C 0.0 **** 0.0
34041 C37 88.1838 15.9269 -0.81736 C 0.0 **** 0.0
34042 C38 87.0336 16.0198 -1.59756 C 0.0 **** 0.0
34043 C39 92.279 12.3193 3.6506 C 0.0 **** 0.0
34044 C40 91.4197 12.4492 2.44466 C 0.0 **** 0.0
34045 C41 90.138 12.8838 2.81285 C 0.0 **** 0.0
34046 C42 89.0709 12.8516 1.90902 C 0.0 **** 0.0
34047 C43 89.3102 12.4728 0.604246 C 0.0 **** 0.0
34048 C44 90.5832 11.9764 0.197732 C 0.0 **** 0.0
34049 C45 91.6626 11.9765 1.15023 C 0.0 **** 0.0
34050 C46 92.8716 11.2913 0.777205 C 0.0 **** 0.0
34051 C47 93.0207 10.7852 -0.519499 C 0.0 **** 0.0
34052 C48 92.0091 10.9484 -1.4879 C 0.0 **** 0.0
34053 C49 90.7597 11.6179 -1.14958 C 0.0 **** 0.0
34054 C50 89.7256 11.9092 -2.11976 C 0.0 **** 0.0
34055 C51 88.514 12.4185 -1.68443 C 0.0 **** 0.0
34056 C52 88.2705 12.6049 -0.327076 C 0.0 **** 0.0
34057 O53 91.0926 9.56629 13.6407 O 0.0 **** 0.0
34058 C54 88.2403 9.98714 13.5982 C 0.0 **** 0.0
34059 O55 92.6062 11.7691 6.53756 O 0.0 **** 0.0
34060 C56 94.1594 9.86879 -0.824238 C 0.0 **** 0.0
34061 C57 95.413 10.6076 -1.2386 C 0.0 **** 0.0
34062 O58 89.416 15.9249 -1.48259 O 0.0 **** 0.0
34063 O59 82.9998 15.0099 2.85397 O 0.0 **** 0.0
34064 O60 89.8718 11.8185 -3.51703 O 0.0 **** 0.0
34065 H61 92.3445 10.0715 11.2365 H 0.0 **** 0.0
34066 H62 87.4976 11.2154 11.3284 H 0.0 **** 0.0
34067 H63 91.7398 10.4326 8.48472 H 0.0 **** 0.0
34068 H64 92.0828 12.1091 9.11318 H 0.0 **** 0.0
34069 H65 86.2181 11.7621 9.56048 H 0.0 **** 0.0
34070 H66 86.9037 13.23 10.4616 H 0.0 **** 0.0
34071 H67 84.5697 13.4815 9.41971 H 0.0 **** 0.0
34072 H68 85.7465 14.7354 8.90546 H 0.0 **** 0.0
34073 H69 85.0068 12.2928 7.21465 H 0.0 **** 0.0
34074 H70 84.3881 14.0296 7.01949 H 0.0 **** 0.0
34075 H71 87.7975 16.2949 4.10429 H 0.0 **** 0.0
34076 H72 84.8981 15.4216 5.23883 H 0.0 **** 0.0
34077 H73 84.4142 17.1658 -2.18066 H 0.0 **** 0.0
34078 H74 84.6973 15.5121 -2.89195 H 0.0 **** 0.0
34079 H75 82.4169 15.9223 -1.79957 H 0.0 **** 0.0
34080 H76 83.2711 14.3816 -1.27709 H 0.0 **** 0.0
34081 H77 83.1585 17.0898 0.195456 H 0.0 **** 0.0
34082 H78 82.2564 15.5569 0.686397 H 0.0 **** 0.0
34083 H79 89.0213 15.5579 1.09947 H 0.0 **** 0.0
34084 H80 87.1233 16.1841 -2.67117 H 0.0 **** 0.0
34085 H81 93.1137 13.0717 3.64107 H 0.0 **** 0.0
34086 H82 92.7337 11.3198 3.73592 H 0.0 **** 0.0
34087 H83 88.097 13.1184 2.24433 H 0.0 **** 0.0
34088 H84 93.711 11.2308 1.50359 H 0.0 **** 0.0
34089 H85 92.1414 10.4709 -2.45336 H 0.0 **** 0.0
34090 H86 87.8251 12.702 -2.41595 H 0.0 **** 0.0
34091 H87 87.2673 12.8577 0.00545847 H 0.0 **** 0.0
34092 H88 92.1261 9.43555 13.5443 H 0.0 **** 0.0
34093 H89 88.0808 8.87253 13.6637 H 0.0 **** 0.0
34094 H90 87.2144 10.4355 13.566 H 0.0 **** 0.0
34095 H91 88.7871 10.3079 14.537 H 0.0 **** 0.0
34096 H92 93.4167 12.0592 6.01467 H 0.0 **** 0.0
34097 H93 94.383 9.29193 0.12277 H 0.0 **** 0.0
34098 H94 95.9448 11.0313 -0.326151 H 0.0 **** 0.0
34099 H95 95.069 11.4098 -1.9253 H 0.0 **** 0.0
34100 H96 96.1198 9.96072 -1.81694 H 0.0 **** 0.0
34101 H97 90.1821 15.9613 -0.835462 H 0.0 **** 0.0
34102 H98 82.9465 15.017 3.87848 H 0.0 **** 0.0
34103 H99 90.7799 11.5771 -3.84146 H 0.0 **** 0.0
34104 H100 88.8281 15.2426 3.10401 H 0.0 **** 0.0
34105 H101 84.6017 13.7705 4.73831 H 0.0 **** 0.0
34106 H102 93.9039 9.12229 -1.56608 H 0.0 **** 0.0
34107 C1 31.4332 100.975 88.1141 C 0.0 **** 0.0
34108 C2 31.9338 100.246 89.2032 C 0.0 **** 0.0
34109 C3 31.5544 98.9278 89.4279 C 0.0 **** 0.0
34110 C4 30.8447 98.2581 88.4858 C 0.0 **** 0.0
34111 C5 30.2998 98.9423 87.3634 C 0.0 **** 0.0
34112 C6 30.6012 100.304 87.1699 C 0.0 **** 0.0
34113 C7 30.5233 96.9145 89.0195 C 0.0 **** 0.0
34114 C8 31.0427 96.8228 90.3278 C 0.0 **** 0.0
34115 C9 31.6842 98.1431 90.6726 C 0.0 **** 0.0
34116 C10 30.7973 95.7049 91.1344 C 0.0 **** 0.0
34117 C11 30.2341 94.5396 90.4785 C 0.0 **** 0.0
34118 C12 29.8469 94.5863 89.1485 C 0.0 **** 0.0
34119 C13 29.8679 95.7964 88.4595 C 0.0 **** 0.0
34120 C14 29.271 95.8684 87.0589 C 0.0 **** 0.0
34121 C15 28.4841 94.6229 86.6156 C 0.0 **** 0.0
34122 C16 29.3143 93.3851 86.9416 C 0.0 **** 0.0
34123 C17 29.5346 93.3207 88.4383 C 0.0 **** 0.0
34124 C18 29.8306 92.0844 89.0579 C 0.0 **** 0.0
34125 C19 30.1066 92.0956 90.4347 C 0.0 **** 0.0
34126 C20 30.0884 93.3391 91.1854 C 0.0 **** 0.0
34127 C21 30.1186 93.4261 92.5825 C 0.0 **** 0.0
34128 C22 30.6576 94.5133 93.252 C 0.0 **** 0.0
34129 C23 31.0881 95.6662 92.5317 C 0.0 **** 0.0
34130 C24 30.7537 90.8935 91.0456 C 0.0 **** 0.0
34131 C25 31.1864 89.7778 90.0689 C 0.0 **** 0.0
34132 C26 30.7264 89.7017 88.7545 C 0.0 **** 0.0
34133 C27 29.842 90.7849 88.2441 C 0.0 **** 0.0
34134 C28 31.0966 88.5876 87.9117 C 0.0 **** 0.0
34135 C29 31.923 87.5687 88.3906 C 0.0 **** 0.0
34136 C30 32.4771 87.7304 89.6491 C 0.0 **** 0.0
34137 C31 32.0474 88.7533 90.5136 C 0.0 **** 0.0
34138 C32 33.4904 86.7863 90.1314 C 0.0 **** 0.0
34139 C33 33.9554 85.7054 89.2232 C 0.0 **** 0.0
34140 C34 32.8482 85.2834 88.243 C 0.0 **** 0.0
34141 C35 32.3768 86.4598 87.4551 C 0.0 **** 0.0
34142 C36 32.56 88.774 91.825 C 0.0 **** 0.0
34143 C37 33.494 87.8238 92.2736 C 0.0 **** 0.0
34144 C38 33.9466 86.8468 91.4322 C 0.0 **** 0.0
34145 C39 30.6375 94.2629 94.7461 C 0.0 **** 0.0
34146 C40 29.7188 93.0687 94.8075 C 0.0 **** 0.0
34147 C41 29.5083 92.6017 93.501 C 0.0 **** 0.0
34148 C42 28.5668 91.5862 93.2674 C 0.0 **** 0.0
34149 C43 28.1934 90.7698 94.3522 C 0.0 **** 0.0
34150 C44 28.6228 91.0835 95.6973 C 0.0 **** 0.0
34151 C45 29.2757 92.3439 95.952 C 0.0 **** 0.0
34152 C46 29.4794 92.7662 97.2624 C 0.0 **** 0.0
34153 C47 29.0567 91.9164 98.339 C 0.0 **** 0.0
34154 C48 28.623 90.5823 98.041 C 0.0 **** 0.0
34155 C49 28.3982 90.1393 96.7265 C 0.0 **** 0.0
34156 C50 27.9034 88.8396 96.4151 C 0.0 **** 0.0
34157 C51 27.4752 88.5942 95.0931 C 0.0 **** 0.0
34158 C52 27.4917 89.5972 94.1304 C 0.0 **** 0.0
34159 O53 31.6912 102.332 87.9996 O 0.0 **** 0.0
34160 C54 29.9019 101.016 86.045 C 0.0 **** 0.0
34161 O55 31.7876 96.7217 93.1272 O 0.0 **** 0.0
34162 C56 29.0911 92.405 99.7673 C 0.0 **** 0.0
34163 C57 27.7112 92.4884 100.469 C 0.0 **** 0.0
34164 O58 33.9997 87.9337 93.563 O 0.0 **** 0.0
34165 O59 30.6774 88.5587 86.5465 O 0.0 **** 0.0
34166 O60 27.5635 87.8946 97.3755 O 0.0 **** 0.0
34167 H61 32.5881 100.658 89.9356 H 0.0 **** 0.0
34168 H62 29.6457 98.488 86.6185 H 0.0 **** 0.0
34169 H63 31.0905 98.6572 91.4383 H 0.0 **** 0.0
34170 H64 32.7915 98.0484 90.9831 H 0.0 **** 0.0
34171 H65 28.578 96.7519 86.9894 H 0.0 **** 0.0
34172 H66 30.0785 96.1134 86.3558 H 0.0 **** 0.0
34173 H67 27.4999 94.6119 87.1279 H 0.0 **** 0.0
34174 H68 28.2516 94.63 85.5231 H 0.0 **** 0.0
34175 H69 28.7072 92.5328 86.6207 H 0.0 **** 0.0
34176 H70 30.2939 93.3631 86.4629 H 0.0 **** 0.0
34177 H71 31.7182 91.2858 91.4889 H 0.0 **** 0.0
34178 H72 30.2476 91.077 87.2552 H 0.0 **** 0.0
34179 H73 34.8196 86.0637 88.6155 H 0.0 **** 0.0
34180 H74 34.2395 84.8195 89.7999 H 0.0 **** 0.0
34181 H75 33.1874 84.4169 87.63 H 0.0 **** 0.0
34182 H76 31.9997 84.9065 88.8238 H 0.0 **** 0.0
34183 H77 33.2151 86.8185 86.8154 H 0.0 **** 0.0
34184 H78 31.4969 86.1212 86.8408 H 0.0 **** 0.0
34185 H79 32.234 89.5432 92.5253 H 0.0 **** 0.0
34186 H80 34.7446 86.1168 91.7356 H 0.0 **** 0.0
34187 H81 31.6462 94.0688 95.1566 H 0.0 **** 0.0
34188 H82 30.2695 95.1375 95.2675 H 0.0 **** 0.0
34189 H83 28.1306 91.4683 92.2965 H 0.0 **** 0.0
34190 H84 30.04 93.6867 97.5329 H 0.0 **** 0.0
34191 H85 28.4708 89.9181 98.8458 H 0.0 **** 0.0
34192 H86 27.0272 87.5983 94.8874 H 0.0 **** 0.0
34193 H87 27.087 89.443 93.1321 H 0.0 **** 0.0
34194 H88 32.3281 102.655 88.7 H 0.0 **** 0.0
34195 H89 29.3957 101.906 86.4788 H 0.0 **** 0.0
34196 H90 29.1841 100.363 85.4881 H 0.0 **** 0.0
34197 H91 30.6153 101.428 85.296 H 0.0 **** 0.0
34198 H92 32.0062 96.5546 94.1058 H 0.0 **** 0.0
34199 H93 29.7941 91.7049 100.315 H 0.0 **** 0.0
34200 H94 27.2172 93.472 100.277 H 0.0 **** 0.0
34201 H95 27.8272 92.3824 101.58 H 0.0 **** 0.0
34202 H96 27.0294 91.7213 100.098 H 0.0 **** 0.0
34203 H97 33.6144 88.6844 94.1321 H 0.0 **** 0.0
34204 H98 29.8725 89.1452 86.3479 H 0.0 **** 0.0
34205 H99 28.1252 87.9288 98.1997 H 0.0 **** 0.0
34206 H100 30.0669 90.4506 91.7435 H 0.0 **** 0.0
34207 H101 28.8002 90.4658 88.1703 H 0.0 **** 0.0
34208 H102 29.6202 93.3684 99.8207 H 0.0 **** 0.0
34209 C1 90.9855 18.5784 19.7774 C 0.0 **** 0.0
34210 C2 90.5051 19.4092 18.7559 C 0.0 **** 0.0
34211 C3 90.5884 20.7806 18.9076 C 0.0 **** 0.0
34212 C4 91.106 21.3594 20.0089 C 0.0 **** 0.0
34213 C5 91.6428 20.5487 21.0606 C 0.0 **** 0.0
34214 C6 91.5274 19.1276 20.9703 C 0.0 **** 0.0
34215 C7 91.0057 22.8241 19.8796 C 0.0 **** 0.0
34216 C8 90.3963 23.0838 18.6577 C 0.0 **** 0.0
34217 C9 90.0406 21.7967 17.9502 C 0.0 **** 0.0
34218 C10 90.2148 24.4359 18.2164 C 0.0 **** 0.0
34219 C11 90.688 25.4874 19.0811 C 0.0 **** 0.0
34220 C12 91.2401 25.1768 20.3732 C 0.0 **** 0.0
34221 C13 91.2704 23.8264 20.7956 C 0.0 **** 0.0
34222 C14 91.7881 23.4477 22.1489 C 0.0 **** 0.0
34223 C15 91.7676 24.6217 23.0878 C 0.0 **** 0.0
34224 C16 92.5196 25.8366 22.4806 C 0.0 **** 0.0
34225 C17 91.9169 26.2149 21.163 C 0.0 **** 0.0
34226 C18 92.1495 27.4537 20.521 C 0.0 **** 0.0
34227 C19 91.5276 27.78 19.2988 C 0.0 **** 0.0
34228 C20 90.692 26.8314 18.677 C 0.0 **** 0.0
34229 C21 89.8417 27.0817 17.5347 C 0.0 **** 0.0
34230 C22 89.4567 26.0986 16.6535 C 0.0 **** 0.0
34231 C23 89.6298 24.7479 17.0084 C 0.0 **** 0.0
34232 C24 91.8903 29.0947 18.678 C 0.0 **** 0.0
34233 C25 93.379 29.4027 18.8298 C 0.0 **** 0.0
34234 C26 93.9344 29.1843 20.0602 C 0.0 **** 0.0
34235 C27 93.095 28.4843 21.1219 C 0.0 **** 0.0
34236 C28 95.3323 29.3967 20.2793 C 0.0 **** 0.0
34237 C29 96.1455 29.8263 19.2044 C 0.0 **** 0.0
34238 C30 95.5725 30.0298 17.931 C 0.0 **** 0.0
34239 C31 94.22 29.7967 17.7328 C 0.0 **** 0.0
34240 C32 96.3943 30.5576 16.8015 C 0.0 **** 0.0
34241 C33 97.8445 30.9473 16.9695 C 0.0 **** 0.0
34242 C34 98.1903 31.1203 18.4654 C 0.0 **** 0.0
34243 C35 97.6522 29.9686 19.358 C 0.0 **** 0.0
34244 C36 93.733 29.8371 16.3908 C 0.0 **** 0.0
34245 C37 94.5675 30.1411 15.3017 C 0.0 **** 0.0
34246 C38 95.8725 30.6108 15.5126 C 0.0 **** 0.0
34247 C39 88.5008 26.65 15.6001 C 0.0 **** 0.0
34248 C40 88.1907 27.9884 16.24 C 0.0 **** 0.0
34249 C41 88.952 28.1296 17.3967 C 0.0 **** 0.0
34250 C42 88.7384 29.1936 18.2979 C 0.0 **** 0.0
34251 C43 87.6306 29.9765 18.0986 C 0.0 **** 0.0
34252 C44 86.8472 29.8783 16.9116 C 0.0 **** 0.0
34253 C45 87.1155 28.8555 15.9787 C 0.0 **** 0.0
34254 C46 86.3551 28.7341 14.8144 C 0.0 **** 0.0
34255 C47 85.2452 29.6332 14.5653 C 0.0 **** 0.0
34256 C48 85.0215 30.6822 15.5077 C 0.0 **** 0.0
34257 C49 85.7363 30.7557 16.6958 C 0.0 **** 0.0
34258 C50 85.3978 31.6562 17.7523 C 0.0 **** 0.0
34259 C51 86.2597 31.8692 18.8344 C 0.0 **** 0.0
34260 C52 87.356 31.0297 19.0281 C 0.0 **** 0.0
34261 O53 91.0056 17.1769 19.6674 O 0.0 **** 0.0
34262 C54 92.0973 18.3439 22.0998 C 0.0 **** 0.0
34263 O55 89.2465 23.7165 16.1401 O 0.0 **** 0.0
34264 C56 84.3564 29.3761 13.3777 C 0.0 **** 0.0
34265 C57 82.8778 29.3681 13.7764 C 0.0 **** 0.0
34266 O58 94.0136 30.3167 14.0273 O 0.0 **** 0.0
34267 O59 95.9055 29.1908 21.5358 O 0.0 **** 0.0
34268 O60 84.1579 32.2586 17.853 O 0.0 **** 0.0
34269 H61 90.1513 18.985 17.8559 H 0.0 **** 0.0
34270 H62 92.196 20.929 21.8977 H 0.0 **** 0.0
34271 H63 88.984 21.6459 17.8353 H 0.0 **** 0.0
34272 H64 90.5548 21.7124 16.9458 H 0.0 **** 0.0
34273 H65 91.156 22.706 22.5844 H 0.0 **** 0.0
34274 H66 92.8349 23.062 22.0402 H 0.0 **** 0.0
34275 H67 90.71 24.9926 23.2998 H 0.0 **** 0.0
34276 H68 92.2562 24.3458 24.0263 H 0.0 **** 0.0
34277 H69 92.4244 26.6316 23.2095 H 0.0 **** 0.0
34278 H70 93.592 25.5445 22.3488 H 0.0 **** 0.0
34279 H71 91.5075 29.034 17.6035 H 0.0 **** 0.0
34280 H72 93.7433 28.0171 21.8973 H 0.0 **** 0.0
34281 H73 98.5094 30.184 16.521 H 0.0 **** 0.0
34282 H74 97.9872 31.9489 16.4706 H 0.0 **** 0.0
34283 H75 99.3092 31.2415 18.5711 H 0.0 **** 0.0
34284 H76 97.7961 32.097 18.8743 H 0.0 **** 0.0
34285 H77 98.1707 29.0369 19.0765 H 0.0 **** 0.0
34286 H78 97.974 30.1602 20.3967 H 0.0 **** 0.0
34287 H79 92.7375 29.6206 16.1306 H 0.0 **** 0.0
34288 H80 96.4668 31.0362 14.69 H 0.0 **** 0.0
34289 H81 88.9842 26.6815 14.5727 H 0.0 **** 0.0
34290 H82 87.6153 26.0463 15.545 H 0.0 **** 0.0
34291 H83 89.2874 29.2144 19.2094 H 0.0 **** 0.0
34292 H84 86.5727 27.9533 14.076 H 0.0 **** 0.0
34293 H85 84.2805 31.4288 15.3381 H 0.0 **** 0.0
34294 H86 86.0355 32.5596 19.6379 H 0.0 **** 0.0
34295 H87 88.0464 31.255 19.8151 H 0.0 **** 0.0
34296 H88 90.6337 16.8363 18.8093 H 0.0 **** 0.0
34297 H89 91.5031 18.5059 23.0108 H 0.0 **** 0.0
34298 H90 93.114 18.7295 22.3626 H 0.0 **** 0.0
34299 H91 92.0609 17.2435 21.9485 H 0.0 **** 0.0
34300 H92 88.8297 24.0528 15.2786 H 0.0 **** 0.0
34301 H93 84.5747 30.1792 12.6245 H 0.0 **** 0.0
34302 H94 82.2448 29.1441 12.8913 H 0.0 **** 0.0
34303 H95 82.5869 30.3767 14.1123 H 0.0 **** 0.0
34304 H96 82.7178 28.6432 14.5134 H 0.0 **** 0.0
34305 H97 93.0877 29.9348 13.8849 H 0.0 **** 0.0
34306 H98 95.3513 29.3645 22.3429 H 0.0 **** 0.0
34307 H99 83.4206 31.8284 17.3512 H 0.0 **** 0.0
34308 H100 91.3842 29.876 19.2169 H 0.0 **** 0.0
34309 H101 92.4592 29.2753 21.5866 H 0.0 **** 0.0
34310 H102 84.6061 28.3889 12.9211 H 0.0 **** 0.0
34311 C1 53.0937 36.5389 32.074 C 0.0 **** 0.0
34312 C2 53.2321 37.875 32.5669 C 0.0 **** 0.0
34313 C3 53.6823 38.8719 31.6767 C 0.0 **** 0.0
34314 C4 54.1728 38.5396 30.4659 C 0.0 **** 0.0
34315 C5 54.0943 37.2261 29.9556 C 0.0 **** 0.0
34316 C6 53.6012 36.1991 30.8024 C 0.0 **** 0.0
34317 C7 54.6271 39.8004 29.8068 C 0.0 **** 0.0
34318 C8 54.2609 40.8989 30.623 C 0.0 **** 0.0
34319 C9 53.7031 40.3695 31.931 C 0.0 **** 0.0
34320 C10 54.331 42.2677 30.1514 C 0.0 **** 0.0
34321 C11 54.5119 42.4299 28.7377 C 0.0 **** 0.0
34322 C12 55.0 41.375 27.9588 C 0.0 **** 0.0
34323 C13 55.1147 40.0551 28.4978 C 0.0 **** 0.0
34324 C14 55.7675 38.978 27.6277 C 0.0 **** 0.0
34325 C15 56.8008 39.5745 26.6033 C 0.0 **** 0.0
34326 C16 56.1065 40.6454 25.73 C 0.0 **** 0.0
34327 C17 55.2561 41.6319 26.5282 C 0.0 **** 0.0
34328 C18 54.5865 42.6972 25.9397 C 0.0 **** 0.0
34329 C19 54.0149 43.6827 26.7341 C 0.0 **** 0.0
34330 C20 54.2825 43.6984 28.1104 C 0.0 **** 0.0
34331 C21 54.2416 44.8238 28.9483 C 0.0 **** 0.0
34332 C22 54.2186 44.7191 30.3415 C 0.0 **** 0.0
34333 C23 54.1891 43.4297 30.96 C 0.0 **** 0.0
34334 C24 52.8269 44.4605 26.2321 C 0.0 **** 0.0
34335 C25 52.9998 44.8568 24.7756 C 0.0 **** 0.0
34336 C26 53.7143 44.0108 23.9203 C 0.0 **** 0.0
34337 C27 54.3349 42.7272 24.4517 C 0.0 **** 0.0
34338 C28 53.7786 44.2822 22.582 C 0.0 **** 0.0
34339 C29 53.375 45.5508 22.1228 C 0.0 **** 0.0
34340 C30 52.7088 46.446 22.9783 C 0.0 **** 0.0
34341 C31 52.4427 46.0854 24.3049 C 0.0 **** 0.0
34342 C32 52.1657 47.7323 22.4567 C 0.0 **** 0.0
34343 C33 52.3829 48.1953 21.0622 C 0.0 **** 0.0
34344 C34 53.611 47.4355 20.4893 C 0.0 **** 0.0
34345 C35 53.4546 45.9336 20.6896 C 0.0 **** 0.0
34346 C36 51.5146 46.8743 25.0399 C 0.0 **** 0.0
34347 C37 51.1534 48.1511 24.5731 C 0.0 **** 0.0
34348 C38 51.4939 48.5506 23.3201 C 0.0 **** 0.0
34349 C39 54.1923 46.0723 30.9624 C 0.0 **** 0.0
34350 C40 54.2604 46.9652 29.7628 C 0.0 **** 0.0
34351 C41 54.3172 46.1971 28.6143 C 0.0 **** 0.0
34352 C42 54.4992 46.8198 27.3644 C 0.0 **** 0.0
34353 C43 54.394 48.2156 27.2684 C 0.0 **** 0.0
34354 C44 54.2181 48.9892 28.4279 C 0.0 **** 0.0
34355 C45 54.1773 48.3445 29.6986 C 0.0 **** 0.0
34356 C46 53.8477 49.0905 30.8448 C 0.0 **** 0.0
34357 C47 53.7119 50.4614 30.7973 C 0.0 **** 0.0
34358 C48 53.7768 51.0749 29.5341 C 0.0 **** 0.0
34359 C49 53.9889 50.3864 28.3092 C 0.0 **** 0.0
34360 C50 54.0186 51.0153 27.0633 C 0.0 **** 0.0
34361 C51 54.2412 50.1974 25.9353 C 0.0 **** 0.0
34362 C52 54.4813 48.8188 26.0272 C 0.0 **** 0.0
34363 O53 52.5439 35.5316 32.8953 O 0.0 **** 0.0
34364 C54 53.4853 34.7687 30.2862 C 0.0 **** 0.0
34365 O55 54.2532 43.3537 32.361 O 0.0 **** 0.0
34366 C56 53.6849 51.2745 32.0915 C 0.0 **** 0.0
34367 C57 52.2618 51.431 32.5426 C 0.0 **** 0.0
34368 O58 50.3125 48.9081 25.3595 O 0.0 **** 0.0
34369 O59 54.296 43.3269 21.6843 O 0.0 **** 0.0
34370 O60 53.9122 52.4274 26.835 O 0.0 **** 0.0
34371 H61 52.8487 38.1413 33.5577 H 0.0 **** 0.0
34372 H62 54.5437 36.9439 28.99 H 0.0 **** 0.0
34373 H63 54.3412 40.6083 32.827 H 0.0 **** 0.0
34374 H64 52.6654 40.7624 32.0798 H 0.0 **** 0.0
34375 H65 56.3374 38.261 28.2819 H 0.0 **** 0.0
34376 H66 54.9324 38.4562 27.0043 H 0.0 **** 0.0
34377 H67 57.6693 40.0288 27.1725 H 0.0 **** 0.0
34378 H68 57.1572 38.7448 25.9705 H 0.0 **** 0.0
34379 H69 56.8434 41.1821 25.0898 H 0.0 **** 0.0
34380 H70 55.4869 40.1124 25.0097 H 0.0 **** 0.0
34381 H71 51.9686 43.7802 26.1784 H 0.0 **** 0.0
34382 H72 53.732 41.8429 24.1795 H 0.0 **** 0.0
34383 H73 51.4885 48.041 20.4331 H 0.0 **** 0.0
34384 H74 52.6316 49.2649 20.959 H 0.0 **** 0.0
34385 H75 53.7094 47.6628 19.429 H 0.0 **** 0.0
34386 H76 54.5525 47.79 21.0193 H 0.0 **** 0.0
34387 H77 52.5525 45.6015 20.1719 H 0.0 **** 0.0
34388 H78 54.3406 45.4953 20.1977 H 0.0 **** 0.0
34389 H79 51.0082 46.4619 25.9284 H 0.0 **** 0.0
34390 H80 51.0756 49.5563 23.07 H 0.0 **** 0.0
34391 H81 53.1794 46.2407 31.4322 H 0.0 **** 0.0
34392 H82 55.0397 46.2331 31.6339 H 0.0 **** 0.0
34393 H83 54.803 46.211 26.5037 H 0.0 **** 0.0
34394 H84 53.8799 48.6408 31.804 H 0.0 **** 0.0
34395 H85 53.767 52.1365 29.5242 H 0.0 **** 0.0
34396 H86 54.246 50.6636 24.9768 H 0.0 **** 0.0
34397 H87 54.6652 48.2822 25.0936 H 0.0 **** 0.0
34398 H88 51.9143 35.8572 33.5754 H 0.0 **** 0.0
34399 H89 53.8282 34.0119 31.05 H 0.0 **** 0.0
34400 H90 54.1215 34.6459 29.3941 H 0.0 **** 0.0
34401 H91 52.486 34.6288 29.9279 H 0.0 **** 0.0
34402 H92 54.1603 44.2343 32.8473 H 0.0 **** 0.0
34403 H93 54.3578 50.7265 32.8738 H 0.0 **** 0.0
34404 H94 52.2454 51.9129 33.5481 H 0.0 **** 0.0
34405 H95 51.7608 50.3931 32.5706 H 0.0 **** 0.0
34406 H96 51.733 52.146 31.857 H 0.0 **** 0.0
34407 H97 50.1694 48.5366 26.2717 H 0.0 **** 0.0
34408 H98 54.4528 42.415 22.0241 H 0.0 **** 0.0
34409 H99 53.5078 52.9764 27.6011 H 0.0 **** 0.0
34410 H100 52.601 45.3221 26.9029 H 0.0 **** 0.0
34411 H101 55.3684 42.5984 23.9846 H 0.0 **** 0.0
34412 H102 54.0836 52.3006 31.9662 H 0.0 **** 0.0
34413 C1 15.5679 17.6426 81.3326 C 0.0 **** 0.0
34414 C2 16.3199 18.1234 82.4176 C 0.0 **** 0.0
34415 C3 15.727 19.06 83.2794 C 0.0 **** 0.0
34416 C4 14.4949 19.6112 83.01 C 0.0 **** 0.0
34417 C5 13.6966 19.0704 82.0202 C 0.0 **** 0.0
34418 C6 14.1888 18.0421 81.2169 C 0.0 **** 0.0
34419 C7 14.2099 20.6572 84.0147 C 0.0 **** 0.0
34420 C8 15.1735 20.5313 85.0147 C 0.0 **** 0.0
34421 C9 16.2472 19.5139 84.6004 C 0.0 **** 0.0
34422 C10 15.2644 21.4505 86.0894 C 0.0 **** 0.0
34423 C11 14.287 22.4944 86.1298 C 0.0 **** 0.0
34424 C12 13.2308 22.559 85.2042 C 0.0 **** 0.0
34425 C13 13.2051 21.6516 84.0947 C 0.0 **** 0.0
34426 C14 12.1573 21.8048 83.013 C 0.0 **** 0.0
34427 C15 11.2649 23.0759 83.1584 C 0.0 **** 0.0
34428 C16 10.8649 23.2898 84.5904 C 0.0 **** 0.0
34429 C17 12.097 23.5135 85.4359 C 0.0 **** 0.0
34430 C18 12.2236 24.4295 86.4802 C 0.0 **** 0.0
34431 C19 13.2037 24.225 87.4606 C 0.0 **** 0.0
34432 C20 14.3674 23.4426 87.1793 C 0.0 **** 0.0
34433 C21 15.5346 23.4329 87.9888 C 0.0 **** 0.0
34434 C22 16.3081 22.2928 88.0647 C 0.0 **** 0.0
34435 C23 16.1572 21.2852 87.164 C 0.0 **** 0.0
34436 C24 12.813 24.6327 88.8729 C 0.0 **** 0.0
34437 C25 12.3514 26.0617 88.8877 C 0.0 **** 0.0
34438 C26 11.48 26.4649 87.8288 C 0.0 **** 0.0
34439 C27 11.1862 25.5019 86.6969 C 0.0 **** 0.0
34440 C28 10.9544 27.7713 87.8262 C 0.0 **** 0.0
34441 C29 11.4489 28.7539 88.7048 C 0.0 **** 0.0
34442 C30 12.2671 28.3849 89.7326 C 0.0 **** 0.0
34443 C31 12.7308 27.0365 89.8774 C 0.0 **** 0.0
34444 C32 12.7887 29.4505 90.6599 C 0.0 **** 0.0
34445 C33 12.6211 30.9138 90.3757 C 0.0 **** 0.0
34446 C34 12.0592 31.1683 88.9604 C 0.0 **** 0.0
34447 C35 10.9697 30.1868 88.604 C 0.0 **** 0.0
34448 C36 13.4416 26.6569 91.0419 C 0.0 **** 0.0
34449 C37 13.8811 27.6242 91.9235 C 0.0 **** 0.0
34450 C38 13.5456 28.9998 91.7637 C 0.0 **** 0.0
34451 C39 17.3942 22.4533 89.0651 C 0.0 **** 0.0
34452 C40 17.2574 23.9193 89.399 C 0.0 **** 0.0
34453 C41 16.0912 24.3804 88.8518 C 0.0 **** 0.0
34454 C42 15.8266 25.7564 88.8693 C 0.0 **** 0.0
34455 C43 16.6448 26.6225 89.5965 C 0.0 **** 0.0
34456 C44 17.8077 26.12 90.2345 C 0.0 **** 0.0
34457 C45 18.1256 24.7545 90.1187 C 0.0 **** 0.0
34458 C46 19.2865 24.2681 90.746 C 0.0 **** 0.0
34459 C47 20.0703 25.1467 91.5338 C 0.0 **** 0.0
34460 C48 19.6795 26.4785 91.7051 C 0.0 **** 0.0
34461 C49 18.5904 27.0009 91.0043 C 0.0 **** 0.0
34462 C50 18.1779 28.3641 91.14 C 0.0 **** 0.0
34463 C51 17.0355 28.8435 90.46 C 0.0 **** 0.0
34464 C52 16.2528 27.9523 89.7489 C 0.0 **** 0.0
34465 O53 16.0972 16.7419 80.4489 O 0.0 **** 0.0
34466 C54 13.2995 17.3477 80.2488 C 0.0 **** 0.0
34467 O55 16.9542 20.1903 87.199 O 0.0 **** 0.0
34468 C56 21.3258 24.6371 92.2107 C 0.0 **** 0.0
34469 C57 22.4747 24.5457 91.2097 C 0.0 **** 0.0
34470 O58 14.7177 27.2585 92.9901 O 0.0 **** 0.0
34471 O59 10.0216 28.1826 86.8299 O 0.0 **** 0.0
34472 O60 18.9379 29.3266 91.8246 O 0.0 **** 0.0
34473 H61 17.3139 17.7157 82.5748 H 0.0 **** 0.0
34474 H62 12.6532 19.4067 81.9417 H 0.0 **** 0.0
34475 H63 17.2747 19.9558 84.5295 H 0.0 **** 0.0
34476 H64 16.199 18.6556 85.3257 H 0.0 **** 0.0
34477 H65 12.6535 21.8403 82.0248 H 0.0 **** 0.0
34478 H66 11.4708 20.9568 83.0265 H 0.0 **** 0.0
34479 H67 11.7875 23.9277 82.7564 H 0.0 **** 0.0
34480 H68 10.372 22.9518 82.5208 H 0.0 **** 0.0
34481 H69 10.1339 24.1465 84.6381 H 0.0 **** 0.0
34482 H70 10.3373 22.3613 84.9599 H 0.0 **** 0.0
34483 H71 11.9559 24.0004 89.1849 H 0.0 **** 0.0
34484 H72 10.251 25.0347 86.941 H 0.0 **** 0.0
34485 H73 12.0165 31.4429 91.1213 H 0.0 **** 0.0
34486 H74 13.6389 31.4 90.4858 H 0.0 **** 0.0
34487 H75 11.6065 32.1421 88.7568 H 0.0 **** 0.0
34488 H76 12.859 31.0989 88.1581 H 0.0 **** 0.0
34489 H77 10.1213 30.3585 89.2689 H 0.0 **** 0.0
34490 H78 10.5518 30.4572 87.6142 H 0.0 **** 0.0
34491 H79 13.6263 25.5925 91.2966 H 0.0 **** 0.0
34492 H80 13.9077 29.7536 92.4945 H 0.0 **** 0.0
34493 H81 17.219 21.7884 89.9479 H 0.0 **** 0.0
34494 H82 18.3347 22.1866 88.5536 H 0.0 **** 0.0
34495 H83 14.9398 26.1114 88.3487 H 0.0 **** 0.0
34496 H84 19.5663 23.2045 90.659 H 0.0 **** 0.0
34497 H85 20.2392 27.0698 92.3703 H 0.0 **** 0.0
34498 H86 16.7706 29.8867 90.5264 H 0.0 **** 0.0
34499 H87 15.3977 28.3611 89.2341 H 0.0 **** 0.0
34500 H88 17.0589 16.6354 80.5614 H 0.0 **** 0.0
34501 H89 13.594 16.3411 80.0453 H 0.0 **** 0.0
34502 H90 13.3294 17.9336 79.2822 H 0.0 **** 0.0
34503 H91 12.2297 17.299 80.5868 H 0.0 **** 0.0
34504 H92 17.5994 20.1707 87.9813 H 0.0 **** 0.0
34505 H93 21.6113 25.3165 93.0427 H 0.0 **** 0.0
34506 H94 22.0877 24.1899 90.2028 H 0.0 **** 0.0
34507 H95 23.2055 23.7636 91.5344 H 0.0 **** 0.0
34508 H96 23.0428 25.5317 91.0484 H 0.0 **** 0.0
34509 H97 15.0371 26.2949 93.0039 H 0.0 **** 0.0
34510 H98 9.44063 27.4231 86.5472 H 0.0 **** 0.0
34511 H99 19.8473 29.0434 92.1191 H 0.0 **** 0.0
34512 H100 13.5833 24.3688 89.5931 H 0.0 **** 0.0
34513 H101 11.048 26.1067 85.7801 H 0.0 **** 0.0
34514 H102 21.1136 23.6403 92.6299 H 0.0 **** 0.0
34515 C1 67.3464 32.5825 57.7601 C 0.0 **** 0.0
34516 C2 66.6158 33.7 58.2179 C 0.0 **** 0.0
34517 C3 67.1735 34.9394 58.2803 C 0.0 **** 0.0
34518 C4 68.4482 35.1555 57.8635 C 0.0 **** 0.0
34519 C5 69.1979 34.1492 57.2858 C 0.0 **** 0.0
34520 C6 68.6491 32.8338 57.2711 C 0.0 **** 0.0
34521 C7 68.7973 36.5769 58.2421 C 0.0 **** 0.0
34522 C8 67.6251 37.1722 58.6851 C 0.0 **** 0.0
34523 C9 66.5321 36.1439 58.8731 C 0.0 **** 0.0
34524 C10 67.6067 38.4631 59.2714 C 0.0 **** 0.0
34525 C11 68.8999 39.0618 59.5361 C 0.0 **** 0.0
34526 C12 70.0582 38.5169 58.9757 C 0.0 **** 0.0
34527 C13 70.0547 37.2377 58.3782 C 0.0 **** 0.0
34528 C14 71.3789 36.5336 57.9635 C 0.0 **** 0.0
34529 C15 72.6431 37.1945 58.608 C 0.0 **** 0.0
34530 C16 72.599 38.7301 58.5373 C 0.0 **** 0.0
34531 C17 71.2836 39.345 58.9505 C 0.0 **** 0.0
34532 C18 71.2288 40.6777 59.3934 C 0.0 **** 0.0
34533 C19 70.1269 41.1432 60.1014 C 0.0 **** 0.0
34534 C20 68.9703 40.3107 60.2504 C 0.0 **** 0.0
34535 C21 67.7679 40.6703 60.952 C 0.0 **** 0.0
34536 C22 66.56 40.1966 60.5223 C 0.0 **** 0.0
34537 C23 66.446 39.0819 59.6911 C 0.0 **** 0.0
34538 C24 70.2018 42.5699 60.6415 C 0.0 **** 0.0
34539 C25 70.739 43.5176 59.5478 C 0.0 **** 0.0
34540 C26 71.6637 43.0259 58.6332 C 0.0 **** 0.0
34541 C27 72.2773 41.6811 58.9608 C 0.0 **** 0.0
34542 C28 72.0023 43.8018 57.4652 C 0.0 **** 0.0
34543 C29 71.3744 45.0463 57.2099 C 0.0 **** 0.0
34544 C30 70.417 45.5505 58.133 C 0.0 **** 0.0
34545 C31 70.0874 44.7888 59.2978 C 0.0 **** 0.0
34546 C32 69.6416 46.763 57.818 C 0.0 **** 0.0
34547 C33 69.8779 47.5493 56.5221 C 0.0 **** 0.0
34548 C34 71.2465 47.2312 55.8477 C 0.0 **** 0.0
34549 C35 71.5681 45.7011 55.836 C 0.0 **** 0.0
34550 C36 69.1189 45.362 60.1722 C 0.0 **** 0.0
34551 C37 68.2757 46.4103 59.7976 C 0.0 **** 0.0
34552 C38 68.4895 47.0303 58.6034 C 0.0 **** 0.0
34553 C39 65.3781 40.9103 61.0926 C 0.0 **** 0.0
34554 C40 66.0967 41.7971 62.0696 C 0.0 **** 0.0
34555 C41 67.4537 41.5248 62.0057 C 0.0 **** 0.0
34556 C42 68.3388 42.1818 62.8989 C 0.0 **** 0.0
34557 C43 67.8192 43.2228 63.6744 C 0.0 **** 0.0
34558 C44 66.4541 43.678 63.5067 C 0.0 **** 0.0
34559 C45 65.5999 42.8999 62.7122 C 0.0 **** 0.0
34560 C46 64.3158 43.3385 62.4781 C 0.0 **** 0.0
34561 C47 63.8515 44.5643 62.9764 C 0.0 **** 0.0
34562 C48 64.684 45.2962 63.83 C 0.0 **** 0.0
34563 C49 66.0247 44.9034 64.0695 C 0.0 **** 0.0
34564 C50 66.9328 45.669 64.8638 C 0.0 **** 0.0
34565 C51 68.1673 45.136 65.1675 C 0.0 **** 0.0
34566 C52 68.6632 43.934 64.5412 C 0.0 **** 0.0
34567 O53 66.8642 31.2754 57.9548 O 0.0 **** 0.0
34568 C54 69.4908 31.7089 56.7184 C 0.0 **** 0.0
34569 O55 65.2025 38.6289 59.226 O 0.0 **** 0.0
34570 C56 62.5355 45.1244 62.5689 C 0.0 **** 0.0
34571 C57 62.6371 45.8631 61.2095 C 0.0 **** 0.0
34572 O58 67.132 46.7538 60.5746 O 0.0 **** 0.0
34573 O59 72.9918 43.3501 56.5704 O 0.0 **** 0.0
34574 O60 66.6348 46.9338 65.3892 O 0.0 **** 0.0
34575 H61 65.5908 33.5301 58.5168 H 0.0 **** 0.0
34576 H62 70.205 34.2687 56.8707 H 0.0 **** 0.0
34577 H63 66.2828 36.0632 59.9325 H 0.0 **** 0.0
34578 H64 65.6228 36.377 58.2886 H 0.0 **** 0.0
34579 H65 71.3461 35.5 58.3469 H 0.0 **** 0.0
34580 H66 71.4896 36.5574 56.869 H 0.0 **** 0.0
34581 H67 72.7308 36.8764 59.6593 H 0.0 **** 0.0
34582 H68 73.5733 36.8481 58.1084 H 0.0 **** 0.0
34583 H69 73.4501 39.1092 59.1421 H 0.0 **** 0.0
34584 H70 72.8482 39.0316 57.4563 H 0.0 **** 0.0
34585 H71 69.1646 42.8654 60.8166 H 0.0 **** 0.0
34586 H72 72.8098 41.2796 58.0351 H 0.0 **** 0.0
34587 H73 69.0607 47.2439 55.8079 H 0.0 **** 0.0
34588 H74 69.7851 48.598 56.7372 H 0.0 **** 0.0
34589 H75 71.2942 47.5791 54.7751 H 0.0 **** 0.0
34590 H76 72.0404 47.7211 56.44 H 0.0 **** 0.0
34591 H77 70.9222 45.2259 55.0866 H 0.0 **** 0.0
34592 H78 72.5928 45.5152 55.4848 H 0.0 **** 0.0
34593 H79 68.9193 44.8622 61.1347 H 0.0 **** 0.0
34594 H80 67.8237 47.8887 58.3269 H 0.0 **** 0.0
34595 H81 64.8114 41.4914 60.3214 H 0.0 **** 0.0
34596 H82 64.6987 40.2334 61.6209 H 0.0 **** 0.0
34597 H83 69.3794 41.7861 63.0581 H 0.0 **** 0.0
34598 H84 63.6762 42.7246 61.8671 H 0.0 **** 0.0
34599 H85 64.3747 46.3105 64.1241 H 0.0 **** 0.0
34600 H86 68.8349 45.6345 65.8805 H 0.0 **** 0.0
34601 H87 69.6702 43.6135 64.7035 H 0.0 **** 0.0
34602 H88 67.5388 30.5591 57.8402 H 0.0 **** 0.0
34603 H89 68.8861 31.0077 56.1442 H 0.0 **** 0.0
34604 H90 69.7631 31.1877 57.6664 H 0.0 **** 0.0
34605 H91 70.3909 32.0683 56.1863 H 0.0 **** 0.0
34606 H92 64.4449 39.3215 59.1725 H 0.0 **** 0.0
34607 H93 61.8585 44.2612 62.3604 H 0.0 **** 0.0
34608 H94 61.9174 45.4155 60.4484 H 0.0 **** 0.0
34609 H95 63.6541 45.8225 60.8139 H 0.0 **** 0.0
34610 H96 62.5127 46.9752 61.4317 H 0.0 **** 0.0
34611 H97 67.1381 46.316 61.538 H 0.0 **** 0.0
34612 H98 73.7671 42.8964 57.023 H 0.0 **** 0.0
34613 H99 65.6895 47.0252 65.618 H 0.0 **** 0.0
34614 H100 70.8034 42.7147 61.5443 H 0.0 **** 0.0
34615 H101 73.0193 41.787 59.8014 H 0.0 **** 0.0
34616 H102 62.0815 45.7207 63.3404 H 0.0 **** 0.0
34617 C1 34.7086 85.7681 56.4308 C 0.0 **** 0.0
34618 C2 34.8472 84.3665 56.6014 C 0.0 **** 0.0
34619 C3 35.5847 83.6341 55.6242 C 0.0 **** 0.0
34620 C4 36.1235 84.2283 54.4908 C 0.0 **** 0.0
34621 C5 36.0821 85.661 54.369 C 0.0 **** 0.0
34622 C6 35.3442 86.3948 55.3199 C 0.0 **** 0.0
34623 C7 36.6814 83.2162 53.5891 C 0.0 **** 0.0
34624 C8 36.5612 81.984 54.2324 C 0.0 **** 0.0
34625 C9 35.815 82.1758 55.5365 C 0.0 **** 0.0
34626 C10 37.1405 80.8002 53.6669 C 0.0 **** 0.0
34627 C11 37.754 80.8274 52.4164 C 0.0 **** 0.0
34628 C12 37.6469 82.0156 51.6614 C 0.0 **** 0.0
34629 C13 37.1526 83.2472 52.2807 C 0.0 **** 0.0
34630 C14 36.8675 84.4409 51.4047 C 0.0 **** 0.0
34631 C15 36.2939 83.9325 50.1126 C 0.0 **** 0.0
34632 C16 37.2671 83.0165 49.3712 C 0.0 **** 0.0
34633 C17 37.7501 81.8619 50.2208 C 0.0 **** 0.0
34634 C18 38.2165 80.6501 49.6595 C 0.0 **** 0.0
34635 C19 38.7569 79.6866 50.4885 C 0.0 **** 0.0
34636 C20 38.3402 79.6445 51.8552 C 0.0 **** 0.0
34637 C21 38.2501 78.4119 52.6353 C 0.0 **** 0.0
34638 C22 37.3996 78.4067 53.7561 C 0.0 **** 0.0
34639 C23 36.9576 79.5813 54.3432 C 0.0 **** 0.0
34640 C24 39.7604 78.7884 49.8618 C 0.0 **** 0.0
34641 C25 40.2772 79.1136 48.4461 C 0.0 **** 0.0
34642 C26 39.5133 79.9756 47.6433 C 0.0 **** 0.0
34643 C27 38.18 80.3552 48.1559 C 0.0 **** 0.0
34644 C28 39.9721 80.3648 46.3725 C 0.0 **** 0.0
34645 C29 41.2064 79.8757 45.9106 C 0.0 **** 0.0
34646 C30 41.934 78.9544 46.6984 C 0.0 **** 0.0
34647 C31 41.4466 78.5546 47.966 C 0.0 **** 0.0
34648 C32 43.2451 78.4696 46.21 C 0.0 **** 0.0
34649 C33 43.5947 78.5763 44.742 C 0.0 **** 0.0
34650 C34 42.5938 79.3633 43.8878 C 0.0 **** 0.0
34651 C35 41.8709 80.4679 44.7119 C 0.0 **** 0.0
34652 C36 42.2407 77.7411 48.7764 C 0.0 **** 0.0
34653 C37 43.5254 77.3701 48.3864 C 0.0 **** 0.0
34654 C38 44.02 77.7768 47.1552 C 0.0 **** 0.0
34655 C39 37.1247 77.0486 54.2536 C 0.0 **** 0.0
34656 C40 37.912 76.2552 53.3393 C 0.0 **** 0.0
34657 C41 38.6444 77.0494 52.4671 C 0.0 **** 0.0
34658 C42 39.761 76.4397 51.8351 C 0.0 **** 0.0
34659 C43 39.8657 75.0534 51.7664 C 0.0 **** 0.0
34660 C44 38.972 74.2366 52.5099 C 0.0 **** 0.0
34661 C45 38.0163 74.8279 53.3633 C 0.0 **** 0.0
34662 C46 37.2243 74.024 54.2065 C 0.0 **** 0.0
34663 C47 37.31 72.6253 54.1561 C 0.0 **** 0.0
34664 C48 38.2186 72.0452 53.2682 C 0.0 **** 0.0
34665 C49 39.0053 72.8279 52.387 C 0.0 **** 0.0
34666 C50 39.9099 72.2514 51.5167 C 0.0 **** 0.0
34667 C51 40.8478 73.0766 50.8828 C 0.0 **** 0.0
34668 C52 40.7881 74.4622 50.9409 C 0.0 **** 0.0
34669 O53 33.9766 86.4789 57.3653 O 0.0 **** 0.0
34670 C54 35.1323 87.8221 55.0212 C 0.0 **** 0.0
34671 O55 36.3094 79.5796 55.5854 O 0.0 **** 0.0
34672 C56 36.2107 71.7689 54.8153 C 0.0 **** 0.0
34673 C57 36.4235 71.4259 56.296 C 0.0 **** 0.0
34674 O58 44.3128 76.5704 49.2118 O 0.0 **** 0.0
34675 O59 39.3188 81.3041 45.5033 O 0.0 **** 0.0
34676 O60 39.9085 70.881 51.2511 O 0.0 **** 0.0
34677 H61 34.3625 83.772 57.4217 H 0.0 **** 0.0
34678 H62 36.5829 86.2006 53.5827 H 0.0 **** 0.0
34679 H63 34.8977 81.5736 55.6094 H 0.0 **** 0.0
34680 H64 36.5358 81.9088 56.3048 H 0.0 **** 0.0
34681 H65 36.0678 85.0984 51.8301 H 0.0 **** 0.0
34682 H66 37.8054 84.9801 51.185 H 0.0 **** 0.0
34683 H67 35.3636 83.3473 50.2753 H 0.0 **** 0.0
34684 H68 36.0318 84.7725 49.5079 H 0.0 **** 0.0
34685 H69 36.6664 82.6169 48.5004 H 0.0 **** 0.0
34686 H70 38.109 83.639 48.9472 H 0.0 **** 0.0
34687 H71 40.634 78.9045 50.5101 H 0.0 **** 0.0
34688 H72 37.6958 81.195 47.5989 H 0.0 **** 0.0
34689 H73 44.5162 79.1355 44.6894 H 0.0 **** 0.0
34690 H74 43.7473 77.5962 44.2541 H 0.0 **** 0.0
34691 H75 43.1337 79.826 43.0668 H 0.0 **** 0.0
34692 H76 41.9201 78.6002 43.3795 H 0.0 **** 0.0
34693 H77 42.5372 81.2959 45.0691 H 0.0 **** 0.0
34694 H78 41.1334 80.9107 43.9764 H 0.0 **** 0.0
34695 H79 41.9351 77.357 49.7507 H 0.0 **** 0.0
34696 H80 44.9938 77.4638 46.8462 H 0.0 **** 0.0
34697 H81 37.4616 76.958 55.2999 H 0.0 **** 0.0
34698 H82 36.0386 76.8907 54.0783 H 0.0 **** 0.0
34699 H83 40.5536 77.0469 51.4506 H 0.0 **** 0.0
34700 H84 36.4896 74.4492 54.87 H 0.0 **** 0.0
34701 H85 38.315 70.965 53.2685 H 0.0 **** 0.0
34702 H86 41.6236 72.6075 50.2524 H 0.0 **** 0.0
34703 H87 41.5445 75.1253 50.458 H 0.0 **** 0.0
34704 H88 33.23 85.9033 57.8085 H 0.0 **** 0.0
34705 H89 36.1118 88.2005 54.6556 H 0.0 **** 0.0
34706 H90 34.8181 88.382 55.9577 H 0.0 **** 0.0
34707 H91 34.447 87.9916 54.1656 H 0.0 **** 0.0
34708 H92 36.4942 78.7777 56.1628 H 0.0 **** 0.0
34709 H93 35.2535 72.3449 54.7095 H 0.0 **** 0.0
34710 H94 35.4652 71.4008 56.8898 H 0.0 **** 0.0
34711 H95 37.0843 72.1456 56.74 H 0.0 **** 0.0
34712 H96 36.8584 70.4168 56.3301 H 0.0 **** 0.0
34713 H97 43.8763 76.3823 50.1335 H 0.0 **** 0.0
34714 H98 38.3236 81.3872 45.6075 H 0.0 **** 0.0
34715 H99 39.139 70.2953 51.5297 H 0.0 **** 0.0
34716 H100 39.2645 77.7575 49.894 H 0.0 **** 0.0
34717 H101 37.4767 79.4748 47.9896 H 0.0 **** 0.0
34718 H102 36.0149 70.8309 54.2614 H 0.0 **** 0.0
34719 C1 73.8836 20.0523 0.691671 C 0.0 **** 0.0
34720 C2 73.1929 19.7873 1.87795 C 0.0 **** 0.0
34721 C3 72.4638 20.83 2.45896 C 0.0 **** 0.0
34722 C4 72.4164 22.1027 1.91179 C 0.0 **** 0.0
34723 C5 72.9976 22.3477 0.673203 C 0.0 **** 0.0
34724 C6 73.7009 21.3268 0.00986697 C 0.0 **** 0.0
34725 C7 71.6695 23.0224 2.71396 C 0.0 **** 0.0
34726 C8 71.1534 22.3113 3.76719 C 0.0 **** 0.0
34727 C9 71.5691 20.8399 3.63574 C 0.0 **** 0.0
34728 C10 70.3578 22.9785 4.74679 C 0.0 **** 0.0
34729 C11 70.2211 24.4149 4.66406 C 0.0 **** 0.0
34730 C12 70.8662 25.1003 3.64197 C 0.0 **** 0.0
34731 C13 71.511 24.4278 2.60487 C 0.0 **** 0.0
34732 C14 72.0467 25.2282 1.38974 C 0.0 **** 0.0
34733 C15 71.7821 26.7181 1.39074 C 0.0 **** 0.0
34734 C16 71.9553 27.2318 2.78421 C 0.0 **** 0.0
34735 C17 70.9722 26.5484 3.68155 C 0.0 **** 0.0
34736 C18 70.129 27.2429 4.59013 C 0.0 **** 0.0
34737 C19 69.186 26.5264 5.36061 C 0.0 **** 0.0
34738 C20 69.3746 25.1226 5.62297 C 0.0 **** 0.0
34739 C21 68.7582 24.3602 6.65824 C 0.0 **** 0.0
34740 C22 68.8921 22.9454 6.65111 C 0.0 **** 0.0
34741 C23 69.7036 22.2648 5.76026 C 0.0 **** 0.0
34742 C24 67.8713 27.2015 5.72427 C 0.0 **** 0.0
34743 C25 68.0285 28.7 6.04288 C 0.0 **** 0.0
34744 C26 69.1992 29.4072 5.60077 C 0.0 **** 0.0
34745 C27 70.2334 28.706 4.76273 C 0.0 **** 0.0
34746 C28 69.3293 30.7537 5.91482 C 0.0 **** 0.0
34747 C29 68.2785 31.4306 6.58546 C 0.0 **** 0.0
34748 C30 67.0598 30.8201 6.88045 C 0.0 **** 0.0
34749 C31 66.8951 29.4302 6.6133 C 0.0 **** 0.0
34750 C32 65.9327 31.5766 7.50981 C 0.0 **** 0.0
34751 C33 66.1342 33.0061 7.92472 C 0.0 **** 0.0
34752 C34 67.6134 33.292 8.1327 C 0.0 **** 0.0
34753 C35 68.4035 32.9279 6.88937 C 0.0 **** 0.0
34754 C36 65.5809 28.844 6.6471 C 0.0 **** 0.0
34755 C37 64.4936 29.5626 7.21277 C 0.0 **** 0.0
34756 C38 64.7081 30.8706 7.67121 C 0.0 **** 0.0
34757 C39 68.1398 22.3147 7.74762 C 0.0 **** 0.0
34758 C40 67.6691 23.5092 8.46246 C 0.0 **** 0.0
34759 C41 68.0767 24.6934 7.85759 C 0.0 **** 0.0
34760 C42 67.7151 25.9202 8.53234 C 0.0 **** 0.0
34761 C43 66.7236 25.9122 9.55364 C 0.0 **** 0.0
34762 C44 66.3663 24.6669 10.1625 C 0.0 **** 0.0
34763 C45 66.9435 23.4826 9.65277 C 0.0 **** 0.0
34764 C46 66.7681 22.2725 10.3062 C 0.0 **** 0.0
34765 C47 65.7934 22.1861 11.2957 C 0.0 **** 0.0
34766 C48 64.9882 23.3376 11.6747 C 0.0 **** 0.0
34767 C49 65.3623 24.6291 11.1364 C 0.0 **** 0.0
34768 C50 64.7359 25.8413 11.4993 C 0.0 **** 0.0
34769 C51 65.0795 27.0522 10.8371 C 0.0 **** 0.0
34770 C52 66.0427 27.063 9.83052 C 0.0 **** 0.0
34771 O53 74.5627 18.9665 0.065307 O 0.0 **** 0.0
34772 C54 74.3022 21.6383 -1.35017 C 0.0 **** 0.0
34773 O55 70.009 20.9059 5.93404 O 0.0 **** 0.0
34774 C56 65.4459 20.8604 11.8635 C 0.0 **** 0.0
34775 C57 64.1142 20.3888 11.2478 C 0.0 **** 0.0
34776 O58 63.2268 28.9283 7.35188 O 0.0 **** 0.0
34777 O59 70.4304 31.5119 5.5345 O 0.0 **** 0.0
34778 O60 64.0846 26.0047 12.7152 O 0.0 **** 0.0
34779 H61 73.1615 18.7563 2.27375 H 0.0 **** 0.0
34780 H62 72.9682 23.2683 0.22731 H 0.0 **** 0.0
34781 H63 72.1207 20.5595 4.55324 H 0.0 **** 0.0
34782 H64 70.7091 20.1308 3.44844 H 0.0 **** 0.0
34783 H65 73.1379 25.0724 1.3312 H 0.0 **** 0.0
34784 H66 71.5084 24.9452 0.458287 H 0.0 **** 0.0
34785 H67 72.4727 27.2733 0.749995 H 0.0 **** 0.0
34786 H68 70.7521 27.0098 1.02091 H 0.0 **** 0.0
34787 H69 72.9358 27.0718 3.26529 H 0.0 **** 0.0
34788 H70 71.8194 28.332 2.77945 H 0.0 **** 0.0
34789 H71 67.3088 27.1315 4.72575 H 0.0 **** 0.0
34790 H72 70.2485 29.1979 3.777 H 0.0 **** 0.0
34791 H73 65.711 33.6355 7.10232 H 0.0 **** 0.0
34792 H74 65.526 33.2048 8.8452 H 0.0 **** 0.0
34793 H75 67.7248 34.3352 8.425 H 0.0 **** 0.0
34794 H76 67.9956 32.6448 8.96396 H 0.0 **** 0.0
34795 H77 67.963 33.5238 6.04823 H 0.0 **** 0.0
34796 H78 69.4732 33.2755 6.91083 H 0.0 **** 0.0
34797 H79 65.3464 27.8163 6.37482 H 0.0 **** 0.0
34798 H80 63.8653 31.4875 8.10715 H 0.0 **** 0.0
34799 H81 67.3085 21.6976 7.34448 H 0.0 **** 0.0
34800 H82 68.8098 21.6413 8.35403 H 0.0 **** 0.0
34801 H83 68.1667 26.8445 8.27043 H 0.0 **** 0.0
34802 H84 67.1356 21.3805 9.87021 H 0.0 **** 0.0
34803 H85 64.0911 23.1986 12.2649 H 0.0 **** 0.0
34804 H86 64.5247 27.9405 11.1193 H 0.0 **** 0.0
34805 H87 66.2836 27.9983 9.33415 H 0.0 **** 0.0
34806 H88 75.0687 19.1472 -0.7965 H 0.0 **** 0.0
34807 H89 73.9969 20.8571 -2.04336 H 0.0 **** 0.0
34808 H90 75.4085 21.6738 -1.34158 H 0.0 **** 0.0
34809 H91 73.8943 22.5543 -1.69228 H 0.0 **** 0.0
34810 H92 69.4046 20.4424 6.5818 H 0.0 **** 0.0
34811 H93 66.2059 20.1015 11.6466 H 0.0 **** 0.0
34812 H94 63.9557 19.3164 11.351 H 0.0 **** 0.0
34813 H95 64.0709 20.5877 10.1361 H 0.0 **** 0.0
34814 H96 63.2506 20.9164 11.665 H 0.0 **** 0.0
34815 H97 63.1708 27.976 7.04719 H 0.0 **** 0.0
34816 H98 71.226 31.0343 5.1685 H 0.0 **** 0.0
34817 H99 64.0514 25.1817 13.2904 H 0.0 **** 0.0
34818 H100 67.1802 26.6157 6.34894 H 0.0 **** 0.0
34819 H101 71.1981 28.8464 5.26923 H 0.0 **** 0.0
34820 H102 65.4103 20.9287 12.9884 H 0.0 **** 0.0
34821 C1 48.8075 11.1991 56.1947 C 0.0 **** 0.0
34822 C2 49.0083 12.5637 56.5688 C 0.0 **** 0.0
34823 C3 47.9598 13.4805 56.4171 C 0.0 **** 0.0
34824 C4 46.6951 13.0982 55.9516 C 0.0 **** 0.0
34825 C5 46.4704 11.7472 55.5518 C 0.0 **** 0.0
34826 C6 47.532 10.7981 55.6938 C 0.0 **** 0.0
34827 C7 45.8688 14.3235 55.8994 C 0.0 **** 0.0
34828 C8 46.6531 15.3686 56.4145 C 0.0 **** 0.0
34829 C9 48.0339 14.8911 56.7973 C 0.0 **** 0.0
34830 C10 46.1608 16.7222 56.4962 C 0.0 **** 0.0
34831 C11 44.8762 16.9781 55.9951 C 0.0 **** 0.0
34832 C12 44.0976 15.9279 55.4611 C 0.0 **** 0.0
34833 C13 44.6209 14.6077 55.3037 C 0.0 **** 0.0
34834 C14 43.9046 13.5676 54.4728 C 0.0 **** 0.0
34835 C15 42.7694 14.1388 53.6378 C 0.0 **** 0.0
34836 C16 41.8388 15.0726 54.4174 C 0.0 **** 0.0
34837 C17 42.6863 16.2121 55.0051 C 0.0 **** 0.0
34838 C18 42.0855 17.423 55.4166 C 0.0 **** 0.0
34839 C19 42.8752 18.4128 56.0287 C 0.0 **** 0.0
34840 C20 44.3203 18.2543 56.0915 C 0.0 **** 0.0
34841 C21 45.257 19.3272 56.3668 C 0.0 **** 0.0
34842 C22 46.5227 19.0916 56.8828 C 0.0 **** 0.0
34843 C23 46.9849 17.7952 56.9812 C 0.0 **** 0.0
34844 C24 42.2023 19.4025 56.9697 C 0.0 **** 0.0
34845 C25 40.7854 19.801 56.6218 C 0.0 **** 0.0
34846 C26 40.0527 19.0164 55.7343 C 0.0 **** 0.0
34847 C27 40.6416 17.7728 55.0416 C 0.0 **** 0.0
34848 C28 38.7002 19.3866 55.4235 C 0.0 **** 0.0
34849 C29 38.1195 20.5292 55.9765 C 0.0 **** 0.0
34850 C30 38.8017 21.1656 57.0378 C 0.0 **** 0.0
34851 C31 40.1437 20.8122 57.3601 C 0.0 **** 0.0
34852 C32 38.1089 22.2221 57.839 C 0.0 **** 0.0
34853 C33 36.6212 22.3127 57.7086 C 0.0 **** 0.0
34854 C34 36.2617 22.335 56.1855 C 0.0 **** 0.0
34855 C35 36.743 21.0506 55.4902 C 0.0 **** 0.0
34856 C36 40.8012 21.6395 58.2814 C 0.0 **** 0.0
34857 C37 40.2017 22.7137 58.9146 C 0.0 **** 0.0
34858 C38 38.8596 22.9887 58.7309 C 0.0 **** 0.0
34859 C39 47.2576 20.3943 57.1252 C 0.0 **** 0.0
34860 C40 46.3296 21.3395 56.4711 C 0.0 **** 0.0
34861 C41 45.1803 20.6769 56.0517 C 0.0 **** 0.0
34862 C42 44.3337 21.2485 55.0503 C 0.0 **** 0.0
34863 C43 44.6118 22.6005 54.6474 C 0.0 **** 0.0
34864 C44 45.6756 23.3665 55.2304 C 0.0 **** 0.0
34865 C45 46.5936 22.6829 56.0696 C 0.0 **** 0.0
34866 C46 47.7694 23.3488 56.5515 C 0.0 **** 0.0
34867 C47 47.9861 24.6388 56.2252 C 0.0 **** 0.0
34868 C48 47.0984 25.3371 55.373 C 0.0 **** 0.0
34869 C49 45.967 24.722 54.8374 C 0.0 **** 0.0
34870 C50 45.0691 25.384 53.9288 C 0.0 **** 0.0
34871 C51 44.015 24.6579 53.4519 C 0.0 **** 0.0
34872 C52 43.8192 23.2599 53.708 C 0.0 **** 0.0
34873 O53 49.8875 10.3308 56.4262 O 0.0 **** 0.0
34874 C54 47.2632 9.36718 55.2672 C 0.0 **** 0.0
34875 O55 48.3007 17.5773 57.355 O 0.0 **** 0.0
34876 C56 49.2315 25.2552 56.7086 C 0.0 **** 0.0
34877 C57 50.275 25.2939 55.5979 C 0.0 **** 0.0
34878 O58 40.9001 23.5389 59.7668 O 0.0 **** 0.0
34879 O59 37.9018 18.6335 54.5224 O 0.0 **** 0.0
34880 O60 45.1744 26.7322 53.4823 O 0.0 **** 0.0
34881 H61 49.9873 12.914 56.8703 H 0.0 **** 0.0
34882 H62 45.468 11.42 55.2462 H 0.0 **** 0.0
34883 H63 48.7881 15.3776 56.1547 H 0.0 **** 0.0
34884 H64 48.2338 14.9204 57.8933 H 0.0 **** 0.0
34885 H65 44.6224 13.1299 53.75 H 0.0 **** 0.0
34886 H66 43.4612 12.7894 55.1094 H 0.0 **** 0.0
34887 H67 43.1372 14.7213 52.776 H 0.0 **** 0.0
34888 H68 42.1535 13.2427 53.2808 H 0.0 **** 0.0
34889 H69 41.0333 15.4463 53.7714 H 0.0 **** 0.0
34890 H70 41.3556 14.5127 55.2159 H 0.0 **** 0.0
34891 H71 42.1805 19.0047 57.9968 H 0.0 **** 0.0
34892 H72 40.0568 16.8794 55.4105 H 0.0 **** 0.0
34893 H73 36.2401 21.4063 58.2007 H 0.0 **** 0.0
34894 H74 36.1924 23.1861 58.1763 H 0.0 **** 0.0
34895 H75 35.1732 22.4466 56.054 H 0.0 **** 0.0
34896 H76 36.7158 23.2534 55.8091 H 0.0 **** 0.0
34897 H77 35.9919 20.3178 55.6616 H 0.0 **** 0.0
34898 H78 36.782 21.2167 54.3956 H 0.0 **** 0.0
34899 H79 41.8375 21.4437 58.5809 H 0.0 **** 0.0
34900 H80 38.4311 23.7661 59.3527 H 0.0 **** 0.0
34901 H81 47.3246 20.6064 58.2325 H 0.0 **** 0.0
34902 H82 48.2418 20.3736 56.5843 H 0.0 **** 0.0
34903 H83 43.5678 20.6719 54.5651 H 0.0 **** 0.0
34904 H84 48.5425 22.8169 57.1167 H 0.0 **** 0.0
34905 H85 47.3664 26.3591 55.1463 H 0.0 **** 0.0
34906 H86 43.3233 25.1403 52.7928 H 0.0 **** 0.0
34907 H87 42.9787 22.7273 53.2895 H 0.0 **** 0.0
34908 H88 49.7164 9.35607 56.1661 H 0.0 **** 0.0
34909 H89 48.0463 8.99011 54.5335 H 0.0 **** 0.0
34910 H90 46.2888 9.24046 54.7877 H 0.0 **** 0.0
34911 H91 47.2725 8.71199 56.1485 H 0.0 **** 0.0
34912 H92 48.8505 18.4653 57.5905 H 0.0 **** 0.0
34913 H93 49.0431 26.2568 57.0619 H 0.0 **** 0.0
34914 H94 51.2519 25.7127 55.9233 H 0.0 **** 0.0
34915 H95 49.9688 25.9141 54.7253 H 0.0 **** 0.0
34916 H96 50.5132 24.2532 55.2975 H 0.0 **** 0.0
34917 H97 41.8645 23.3142 59.8823 H 0.0 **** 0.0
34918 H98 38.1964 17.677 54.4364 H 0.0 **** 0.0
34919 H99 46.0886 27.2209 53.6543 H 0.0 **** 0.0
34920 H100 42.7927 20.3455 56.8273 H 0.0 **** 0.0
34921 H101 40.561 17.8918 53.9487 H 0.0 **** 0.0
34922 H102 49.6812 24.646 57.489 H 0.0 **** 0.0
34923 C1 30.5189 73.4529 18.3204 C 0.0 **** 0.0
34924 C2 30.2521 72.224 18.901 C 0.0 **** 0.0
34925 C3 29.9997 72.1692 20.2996 C 0.0 **** 0.0
34926 C4 29.9339 73.337 21.0799 C 0.0 **** 0.0
34927 C5 30.1932 74.5791 20.4714 C 0.0 **** 0.0
34928 C6 30.4997 74.6468 19.096 C 0.0 **** 0.0
34929 C7 29.6311 72.9336 22.4558 C 0.0 **** 0.0
34930 C8 29.5076 71.5541 22.4737 C 0.0 **** 0.0
34931 C9 29.6776 70.9712 21.1021 C 0.0 **** 0.0
34932 C10 29.1881 70.8225 23.6346 C 0.0 **** 0.0
34933 C11 29.0702 71.5799 24.8548 C 0.0 **** 0.0
34934 C12 29.2275 72.9968 24.8319 C 0.0 **** 0.0
34935 C13 29.5964 73.6702 23.6687 C 0.0 **** 0.0
34936 C14 30.1471 75.0688 23.7088 C 0.0 **** 0.0
34937 C15 30.5184 75.5388 25.1024 C 0.0 **** 0.0
34938 C16 29.4278 75.2116 26.1233 C 0.0 **** 0.0
34939 C17 29.3089 73.7137 26.1412 C 0.0 **** 0.0
34940 C18 28.955 73.0062 27.3157 C 0.0 **** 0.0
34941 C19 28.5182 71.6806 27.2131 C 0.0 **** 0.0
34942 C20 28.8533 70.925 26.0865 C 0.0 **** 0.0
34943 C21 28.853 69.5271 26.111 C 0.0 **** 0.0
34944 C22 28.8057 68.7834 24.9378 C 0.0 **** 0.0
34945 C23 29.0215 69.4004 23.6634 C 0.0 **** 0.0
34946 C24 27.4775 71.2517 28.1964 C 0.0 **** 0.0
34947 C25 28.0192 71.4614 29.6139 C 0.0 **** 0.0
34948 C26 28.8793 72.5745 29.8696 C 0.0 **** 0.0
34949 C27 29.1236 73.5704 28.735 C 0.0 **** 0.0
34950 C28 29.5196 72.6792 31.1424 C 0.0 **** 0.0
34951 C29 29.4749 71.5937 32.0211 C 0.0 **** 0.0
34952 C30 28.5794 70.5844 31.7891 C 0.0 **** 0.0
34953 C31 27.8075 70.5275 30.6032 C 0.0 **** 0.0
34954 C32 28.368 69.5353 32.811 C 0.0 **** 0.0
34955 C33 29.2784 69.3914 33.9837 C 0.0 **** 0.0
34956 C34 30.5749 70.1268 33.6928 C 0.0 **** 0.0
34957 C35 30.3613 71.5679 33.2122 C 0.0 **** 0.0
34958 C36 26.8186 69.5155 30.4709 C 0.0 **** 0.0
34959 C37 26.5497 68.6581 31.5157 C 0.0 **** 0.0
34960 C38 27.3726 68.6068 32.6202 C 0.0 **** 0.0
34961 C39 28.6262 67.3718 25.2535 C 0.0 **** 0.0
34962 C40 28.8112 67.3629 26.7137 C 0.0 **** 0.0
34963 C41 29.0277 68.6227 27.1753 C 0.0 **** 0.0
34964 C42 29.5135 68.8569 28.4654 C 0.0 **** 0.0
34965 C43 29.7453 67.749 29.2901 C 0.0 **** 0.0
34966 C44 29.4937 66.4331 28.84 C 0.0 **** 0.0
34967 C45 29.0755 66.2188 27.4991 C 0.0 **** 0.0
34968 C46 28.8506 64.9519 27.0598 C 0.0 **** 0.0
34969 C47 29.0284 63.8197 27.8922 C 0.0 **** 0.0
34970 C48 29.4535 64.049 29.2096 C 0.0 **** 0.0
34971 C49 29.6795 65.3223 29.7342 C 0.0 **** 0.0
34972 C50 30.0877 65.5571 31.0712 C 0.0 **** 0.0
34973 C51 30.3151 66.8631 31.4721 C 0.0 **** 0.0
34974 C52 30.16 67.924 30.5938 C 0.0 **** 0.0
34975 O53 30.7992 73.5391 16.9761 O 0.0 **** 0.0
34976 C54 30.8983 75.9546 18.524 C 0.0 **** 0.0
34977 O55 28.9911 68.6024 22.4862 O 0.0 **** 0.0
34978 C56 28.7587 62.4592 27.3397 C 0.0 **** 0.0
34979 C57 27.2245 62.2218 27.378 C 0.0 **** 0.0
34980 O58 25.464 67.82 31.4983 O 0.0 **** 0.0
34981 O59 30.2232 73.7996 31.5243 O 0.0 **** 0.0
34982 O60 30.331 64.5361 31.991 O 0.0 **** 0.0
34983 H61 30.2169 71.2915 18.3645 H 0.0 **** 0.0
34984 H62 30.1033 75.5088 21.0583 H 0.0 **** 0.0
34985 H63 30.5458 70.1709 21.0394 H 0.0 **** 0.0
34986 H64 28.7515 70.508 20.692 H 0.0 **** 0.0
34987 H65 31.0972 75.0942 23.1398 H 0.0 **** 0.0
34988 H66 29.3954 75.7747 23.3338 H 0.0 **** 0.0
34989 H67 31.4953 75.1483 25.3306 H 0.0 **** 0.0
34990 H68 30.6464 76.6263 25.1634 H 0.0 **** 0.0
34991 H69 29.6332 75.6472 27.1232 H 0.0 **** 0.0
34992 H70 28.4379 75.5553 25.801 H 0.0 **** 0.0
34993 H71 26.5656 71.874 28.0184 H 0.0 **** 0.0
34994 H72 28.4406 74.4298 28.8961 H 0.0 **** 0.0
34995 H73 28.8093 69.8192 34.9418 H 0.0 **** 0.0
34996 H74 29.5532 68.3151 34.1365 H 0.0 **** 0.0
34997 H75 31.1932 70.2216 34.6362 H 0.0 **** 0.0
34998 H76 31.227 69.5757 32.9123 H 0.0 **** 0.0
34999 H77 29.8722 72.1436 34.069 H 0.0 **** 0.0
35000 H78 31.3567 72.1338 33.019 H 0.0 **** 0.0
35001 H79 26.1505 69.5427 29.6596 H 0.0 **** 0.0
35002 H80 27.245 67.8205 33.3527 H 0.0 **** 0.0
35003 H81 27.6259 67.0928 24.8786 H 0.0 **** 0.0
35004 H82 29.4541 66.7842 24.7945 H 0.0 **** 0.0
35005 H83 29.8928 69.8201 28.7484 H 0.0 **** 0.0
35006 H84 28.461 64.7893 26.0708 H 0.0 **** 0.0
35007 H85 29.6846 63.2249 29.8548 H 0.0 **** 0.0
35008 H86 30.5411 67.0688 32.4767 H 0.0 **** 0.0
35009 H87 30.4314 68.9182 30.9384 H 0.0 **** 0.0
35010 H88 30.7519 72.66 16.4823 H 0.0 **** 0.0
35011 H89 29.9375 76.5107 18.2998 H 0.0 **** 0.0
35012 H90 31.5901 75.8497 17.6517 H 0.0 **** 0.0
35013 H91 31.4001 76.5293 19.3073 H 0.0 **** 0.0
35014 H92 29.0724 67.6116 22.6704 H 0.0 **** 0.0
35015 H93 29.1414 62.4254 26.3291 H 0.0 **** 0.0
35016 H94 26.7083 62.8994 26.6603 H 0.0 **** 0.0
35017 H95 26.7712 62.3684 28.4086 H 0.0 **** 0.0
35018 H96 27.0199 61.1503 27.0588 H 0.0 **** 0.0
35019 H97 24.841 68.0011 30.7106 H 0.0 **** 0.0
35020 H98 30.1784 74.6155 30.9234 H 0.0 **** 0.0
35021 H99 30.9732 63.8513 31.6227 H 0.0 **** 0.0
35022 H100 27.1602 70.2158 27.9927 H 0.0 **** 0.0
35023 H101 30.1783 73.9705 28.7446 H 0.0 **** 0.0
35024 H102 29.2915 61.6862 27.9103 H 0.0 **** 0.0
35025 C1 7.73089 60.9817 41.3398 C 0.0 **** 0.0
35026 C2 8.72785 60.7023 42.247 C 0.0 **** 0.0
35027 C3 8.73424 59.4172 42.8308 C 0.0 **** 0.0
35028 C4 7.72635 58.48 42.6059 C 0.0 **** 0.0
35029 C5 6.78163 58.71 41.5897 C 0.0 **** 0.0
35030 C6 6.73255 59.9613 41.02 C 0.0 **** 0.0
35031 C7 7.9084 57.4095 43.5949 C 0.0 **** 0.0
35032 C8 9.04811 57.6982 44.2778 C 0.0 **** 0.0
35033 C9 9.6296 59.0044 43.9083 C 0.0 **** 0.0
35034 C10 9.49151 56.923 45.3577 C 0.0 **** 0.0
35035 C11 8.75096 55.7532 45.7072 C 0.0 **** 0.0
35036 C12 7.54278 55.4702 45.038 C 0.0 **** 0.0
35037 C13 7.07774 56.2774 43.9859 C 0.0 **** 0.0
35038 C14 5.68499 56.0229 43.394 C 0.0 **** 0.0
35039 C15 4.76791 55.2207 44.2613 C 0.0 **** 0.0
35040 C16 5.43648 53.9364 44.7852 C 0.0 **** 0.0
35041 C17 6.80133 54.2233 45.3779 C 0.0 **** 0.0
35042 C18 7.5105 53.2257 46.0665 C 0.0 **** 0.0
35043 C19 8.73849 53.486 46.6782 C 0.0 **** 0.0
35044 C20 9.22236 54.8285 46.689 C 0.0 **** 0.0
35045 C21 10.2411 55.3302 47.5812 C 0.0 **** 0.0
35046 C22 11.0117 56.4331 47.1982 C 0.0 **** 0.0
35047 C23 10.7037 57.2294 46.055 C 0.0 **** 0.0
35048 C24 9.72211 52.3487 46.7821 C 0.0 **** 0.0
35049 C25 9.08537 51.0796 47.2676 C 0.0 **** 0.0
35050 C26 7.7027 50.8871 47.1646 C 0.0 **** 0.0
35051 C27 6.87433 51.84 46.3122 C 0.0 **** 0.0
35052 C28 7.01001 49.8576 47.8199 C 0.0 **** 0.0
35053 C29 7.7127 48.963 48.6393 C 0.0 **** 0.0
35054 C30 9.13047 49.0238 48.6113 C 0.0 **** 0.0
35055 C31 9.85721 50.0671 47.9526 C 0.0 **** 0.0
35056 C32 9.86638 47.863 49.1134 C 0.0 **** 0.0
35057 C33 9.09898 46.628 49.5833 C 0.0 **** 0.0
35058 C34 7.8292 47.0978 50.3359 C 0.0 **** 0.0
35059 C35 6.96765 47.8871 49.3956 C 0.0 **** 0.0
35060 C36 11.277 50.0465 47.9465 C 0.0 **** 0.0
35061 C37 11.9574 48.9233 48.4879 C 0.0 **** 0.0
35062 C38 11.2303 47.8292 49.0118 C 0.0 **** 0.0
35063 C39 12.1589 56.6806 48.1235 C 0.0 **** 0.0
35064 C40 11.8621 55.6231 49.149 C 0.0 **** 0.0
35065 C41 10.7485 54.9042 48.811 C 0.0 **** 0.0
35066 C42 10.2883 53.8715 49.6388 C 0.0 **** 0.0
35067 C43 11.0664 53.5102 50.7433 C 0.0 **** 0.0
35068 C44 12.2495 54.2365 51.0885 C 0.0 **** 0.0
35069 C45 12.6218 55.3428 50.3022 C 0.0 **** 0.0
35070 C46 13.8056 56.0804 50.6253 C 0.0 **** 0.0
35071 C47 14.644 55.6836 51.6814 C 0.0 **** 0.0
35072 C48 14.2766 54.5337 52.3986 C 0.0 **** 0.0
35073 C49 13.0435 53.8785 52.1902 C 0.0 **** 0.0
35074 C50 12.6564 52.7136 52.9661 C 0.0 **** 0.0
35075 C51 11.6062 51.9524 52.5542 C 0.0 **** 0.0
35076 C52 10.8113 52.3458 51.4599 C 0.0 **** 0.0
35077 O53 7.67643 62.1994 40.6299 O 0.0 **** 0.0
35078 C54 5.72935 60.1856 39.9387 C 0.0 **** 0.0
35079 O55 11.5865 58.2431 45.6528 O 0.0 **** 0.0
35080 C56 15.9821 56.3669 51.8643 C 0.0 **** 0.0
35081 C57 15.8782 57.7091 52.5913 C 0.0 **** 0.0
35082 O58 13.3489 48.9193 48.6299 O 0.0 **** 0.0
35083 O59 5.65287 49.7264 47.4802 O 0.0 **** 0.0
35084 O60 13.383 52.2686 54.0775 O 0.0 **** 0.0
35085 H61 9.49957 61.4492 42.4504 H 0.0 **** 0.0
35086 H62 6.10445 57.9476 41.3189 H 0.0 **** 0.0
35087 H63 9.55989 59.7339 44.7686 H 0.0 **** 0.0
35088 H64 10.655 58.9714 43.4566 H 0.0 **** 0.0
35089 H65 5.19766 57.0014 43.2875 H 0.0 **** 0.0
35090 H66 5.84757 55.5372 42.4501 H 0.0 **** 0.0
35091 H67 4.40079 55.8269 45.1601 H 0.0 **** 0.0
35092 H68 3.82554 54.9576 43.7121 H 0.0 **** 0.0
35093 H69 4.75753 53.5889 45.6063 H 0.0 **** 0.0
35094 H70 5.53754 53.2254 43.9709 H 0.0 **** 0.0
35095 H71 10.153 52.0907 45.7735 H 0.0 **** 0.0
35096 H72 6.68785 51.317 45.361 H 0.0 **** 0.0
35097 H73 8.8554 46.0433 48.6737 H 0.0 **** 0.0
35098 H74 9.69743 46.0382 50.2783 H 0.0 **** 0.0
35099 H75 7.25802 46.2507 50.7138 H 0.0 **** 0.0
35100 H76 8.11502 47.7482 51.1745 H 0.0 **** 0.0
35101 H77 6.55825 47.169 48.5774 H 0.0 **** 0.0
35102 H78 6.0913 48.3228 49.9885 H 0.0 **** 0.0
35103 H79 11.8619 50.8295 47.505 H 0.0 **** 0.0
35104 H80 11.7758 46.9365 49.3774 H 0.0 **** 0.0
35105 H81 13.1511 56.5076 47.6735 H 0.0 **** 0.0
35106 H82 12.1005 57.6972 48.5727 H 0.0 **** 0.0
35107 H83 9.35169 53.3465 49.4101 H 0.0 **** 0.0
35108 H84 14.0764 56.9471 50.0214 H 0.0 **** 0.0
35109 H85 14.9978 54.2173 53.1141 H 0.0 **** 0.0
35110 H86 11.4394 50.998 53.029 H 0.0 **** 0.0
35111 H87 9.88115 51.8244 51.2727 H 0.0 **** 0.0
35112 H88 8.38414 62.8554 40.9429 H 0.0 **** 0.0
35113 H89 5.07956 59.2732 39.747 H 0.0 **** 0.0
35114 H90 6.26856 60.4638 39.0168 H 0.0 **** 0.0
35115 H91 5.14674 61.0854 40.2149 H 0.0 **** 0.0
35116 H92 12.3058 58.4677 46.3129 H 0.0 **** 0.0
35117 H93 16.637 55.6982 52.4614 H 0.0 **** 0.0
35118 H94 16.9118 58.1359 52.7553 H 0.0 **** 0.0
35119 H95 15.52 57.5214 53.6076 H 0.0 **** 0.0
35120 H96 15.2216 58.4602 52.0689 H 0.0 **** 0.0
35121 H97 13.7856 49.6862 48.1653 H 0.0 **** 0.0
35122 H98 5.2273 48.8701 47.7731 H 0.0 **** 0.0
35123 H99 13.9428 52.9619 54.5118 H 0.0 **** 0.0
35124 H100 10.6458 52.6441 47.3296 H 0.0 **** 0.0
35125 H101 5.92893 52.0445 46.8349 H 0.0 **** 0.0
35126 H102 16.4582 56.4647 50.8454 H 0.0 **** 0.0
35127 C1 27.0096 6.02162 88.7174 C 0.0 **** 0.0
35128 C2 25.9877 5.20302 89.2486 C 0.0 **** 0.0
35129 C3 24.6347 5.53101 89.0319 C 0.0 **** 0.0
35130 C4 24.2904 6.70975 88.4097 C 0.0 **** 0.0
35131 C5 25.2786 7.52103 87.8782 C 0.0 **** 0.0
35132 C6 26.6292 7.20586 88.0159 C 0.0 **** 0.0
35133 C7 22.8127 6.73094 88.2602 C 0.0 **** 0.0
35134 C8 22.3009 5.54174 88.8368 C 0.0 **** 0.0
35135 C9 23.4538 4.72119 89.4246 C 0.0 **** 0.0
35136 C10 20.9232 5.17833 88.7559 C 0.0 **** 0.0
35137 C11 20.0628 6.12064 88.0926 C 0.0 **** 0.0
35138 C12 20.6182 7.31596 87.5645 C 0.0 **** 0.0
35139 C13 21.9391 7.68334 87.7264 C 0.0 **** 0.0
35140 C14 22.4591 9.05383 87.3597 C 0.0 **** 0.0
35141 C15 21.3344 10.0746 87.3674 C 0.0 **** 0.0
35142 C16 20.2378 9.61729 86.4539 C 0.0 **** 0.0
35143 C17 19.7512 8.22944 86.8033 C 0.0 **** 0.0
35144 C18 18.5414 7.71238 86.2904 C 0.0 **** 0.0
35145 C19 18.0674 6.46232 86.6672 C 0.0 **** 0.0
35146 C20 18.717 5.71567 87.7124 C 0.0 **** 0.0
35147 C21 18.1942 4.56497 88.3334 C 0.0 **** 0.0
35148 C22 19.0313 3.66204 88.9843 C 0.0 **** 0.0
35149 C23 20.3744 3.94047 89.195 C 0.0 **** 0.0
35150 C24 17.0459 5.79574 85.7397 C 0.0 **** 0.0
35151 C25 16.9864 6.28572 84.2676 C 0.0 **** 0.0
35152 C26 17.5713 7.54269 84.0124 C 0.0 **** 0.0
35153 C27 17.7848 8.45393 85.2158 C 0.0 **** 0.0
35154 C28 17.7584 7.92312 82.6626 C 0.0 **** 0.0
35155 C29 17.2632 7.09727 81.6509 C 0.0 **** 0.0
35156 C30 16.4948 5.98089 81.9332 C 0.0 **** 0.0
35157 C31 16.3998 5.50758 83.2342 C 0.0 **** 0.0
35158 C32 15.8345 5.19378 80.8366 C 0.0 **** 0.0
35159 C33 15.9614 5.65555 79.454 C 0.0 **** 0.0
35160 C34 17.3523 6.22971 79.2663 C 0.0 **** 0.0
35161 C35 17.5171 7.44925 80.2195 C 0.0 **** 0.0
35162 C36 15.7546 4.22609 83.4705 C 0.0 **** 0.0
35163 C37 15.1788 3.52845 82.461 C 0.0 **** 0.0
35164 C38 15.2381 3.99528 81.1666 C 0.0 **** 0.0
35165 C39 18.2717 2.37615 89.3195 C 0.0 **** 0.0
35166 C40 16.8788 2.78739 88.9496 C 0.0 **** 0.0
35167 C41 16.8876 4.09831 88.4267 C 0.0 **** 0.0
35168 C42 15.6928 4.74088 88.2292 C 0.0 **** 0.0
35169 C43 14.5583 3.95162 87.9944 C 0.0 **** 0.0
35170 C44 14.5681 2.54879 88.2312 C 0.0 **** 0.0
35171 C45 15.7504 1.97636 88.7386 C 0.0 **** 0.0
35172 C46 15.8499 0.592807 88.8991 C 0.0 **** 0.0
35173 C47 14.8053 -0.234843 88.5663 C 0.0 **** 0.0
35174 C48 13.6175 0.356194 88.0535 C 0.0 **** 0.0
35175 C49 13.4738 1.74506 87.9355 C 0.0 **** 0.0
35176 C50 12.2925 2.36445 87.4581 C 0.0 **** 0.0
35177 C51 12.2991 3.75576 87.2695 C 0.0 **** 0.0
35178 C52 13.3763 4.56006 87.5255 C 0.0 **** 0.0
35179 O53 28.3413 5.72331 88.8691 O 0.0 **** 0.0
35180 C54 27.7123 8.154 87.4978 C 0.0 **** 0.0
35181 O55 21.1822 3.03188 89.855 O 0.0 **** 0.0
35182 C56 14.9202 -1.75883 88.8182 C 0.0 **** 0.0
35183 C57 13.5985 -2.49765 88.8311 C 0.0 **** 0.0
35184 O58 14.5721 2.29336 82.7866 O 0.0 **** 0.0
35185 O59 18.4359 9.1312 82.3324 O 0.0 **** 0.0
35186 O60 11.1369 1.66478 87.1811 O 0.0 **** 0.0
35187 H61 26.1788 4.25881 89.7906 H 0.0 **** 0.0
35188 H62 24.9959 8.39106 87.3044 H 0.0 **** 0.0
35189 H63 23.3779 4.59185 90.5287 H 0.0 **** 0.0
35190 H64 23.458 3.7126 88.9591 H 0.0 **** 0.0
35191 H65 23.2086 9.38518 88.1254 H 0.0 **** 0.0
35192 H66 22.915 8.98529 86.351 H 0.0 **** 0.0
35193 H67 20.9893 10.291 88.4528 H 0.0 **** 0.0
35194 H68 21.7121 11.0442 86.9012 H 0.0 **** 0.0
35195 H69 19.3826 10.2947 86.5966 H 0.0 **** 0.0
35196 H70 20.5726 9.68292 85.4187 H 0.0 **** 0.0
35197 H71 17.2053 4.70543 85.7057 H 0.0 **** 0.0
35198 H72 18.3387 9.35363 84.8975 H 0.0 **** 0.0
35199 H73 15.8013 4.84977 78.6742 H 0.0 **** 0.0
35200 H74 15.1936 6.45617 79.3132 H 0.0 **** 0.0
35201 H75 18.068 5.40454 79.5022 H 0.0 **** 0.0
35202 H76 17.6013 6.46511 78.2281 H 0.0 **** 0.0
35203 H77 18.5853 7.78551 80.1211 H 0.0 **** 0.0
35204 H78 16.8878 8.29324 79.9566 H 0.0 **** 0.0
35205 H79 15.6186 3.85144 84.5044 H 0.0 **** 0.0
35206 H80 14.8323 3.34183 80.349 H 0.0 **** 0.0
35207 H81 18.6207 1.59472 88.5979 H 0.0 **** 0.0
35208 H82 18.3737 2.08934 90.4038 H 0.0 **** 0.0
35209 H83 15.6477 5.81302 88.2771 H 0.0 **** 0.0
35210 H84 16.7882 0.153116 89.2506 H 0.0 **** 0.0
35211 H85 12.8008 -0.194948 87.6515 H 0.0 **** 0.0
35212 H86 11.393 4.1894 86.9072 H 0.0 **** 0.0
35213 H87 13.3179 5.63177 87.3353 H 0.0 **** 0.0
35214 H88 28.4978 4.87916 89.3863 H 0.0 **** 0.0
35215 H89 28.2082 8.63444 88.3687 H 0.0 **** 0.0
35216 H90 27.3022 8.95507 86.8281 H 0.0 **** 0.0
35217 H91 28.4938 7.58743 86.9191 H 0.0 **** 0.0
35218 H92 20.7855 2.09837 89.9539 H 0.0 **** 0.0
35219 H93 15.5677 -2.21858 88.0448 H 0.0 **** 0.0
35220 H94 13.7658 -3.51007 89.2593 H 0.0 **** 0.0
35221 H95 13.2147 -2.55261 87.8065 H 0.0 **** 0.0
35222 H96 12.8881 -1.95646 89.4481 H 0.0 **** 0.0
35223 H97 14.8468 1.89901 83.669 H 0.0 **** 0.0
35224 H98 19.2054 9.39372 82.9333 H 0.0 **** 0.0
35225 H99 10.9829 0.89401 87.8763 H 0.0 **** 0.0
35226 H100 16.0052 6.04674 86.0271 H 0.0 **** 0.0
35227 H101 16.7892 8.84342 85.6216 H 0.0 **** 0.0
35228 H102 15.4824 -1.89101 89.7323 H 0.0 **** 0.0
35229 C1 33.9964 45.1036 55.1348 C 0.0 **** 0.0
35230 C2 33.6095 45.2497 56.478 C 0.0 **** 0.0
35231 C3 34.4141 44.7386 57.488 C 0.0 **** 0.0
35232 C4 35.6275 44.1131 57.2298 C 0.0 **** 0.0
35233 C5 36.13 44.0479 55.9211 C 0.0 **** 0.0
35234 C6 35.2903 44.538 54.8603 C 0.0 **** 0.0
35235 C7 36.2146 43.7859 58.5742 C 0.0 **** 0.0
35236 C8 35.3104 44.0871 59.5437 C 0.0 **** 0.0
35237 C9 34.1037 44.7422 58.9539 C 0.0 **** 0.0
35238 C10 35.6167 44.0171 60.913 C 0.0 **** 0.0
35239 C11 36.9752 43.781 61.2836 C 0.0 **** 0.0
35240 C12 37.931 43.5518 60.2881 C 0.0 **** 0.0
35241 C13 37.5463 43.4144 58.881 C 0.0 **** 0.0
35242 C14 38.5761 43.026 57.8488 C 0.0 **** 0.0
35243 C15 39.8752 42.4413 58.4181 C 0.0 **** 0.0
35244 C16 40.4438 43.2753 59.5754 C 0.0 **** 0.0
35245 C17 39.3941 43.5112 60.634 C 0.0 **** 0.0
35246 C18 39.7475 43.8962 61.9757 C 0.0 **** 0.0
35247 C19 38.7591 43.9685 62.9844 C 0.0 **** 0.0
35248 C20 37.3853 43.7394 62.6772 C 0.0 **** 0.0
35249 C21 36.3147 43.5904 63.621 C 0.0 **** 0.0
35250 C22 35.015 43.9492 63.2605 C 0.0 **** 0.0
35251 C23 34.6607 44.2675 61.9535 C 0.0 **** 0.0
35252 C24 39.109 44.6982 64.2632 C 0.0 **** 0.0
35253 C25 40.5211 45.0684 64.5628 C 0.0 **** 0.0
35254 C26 41.5429 44.9391 63.5396 C 0.0 **** 0.0
35255 C27 41.1699 44.3581 62.2182 C 0.0 **** 0.0
35256 C28 42.8627 45.3282 63.8625 C 0.0 **** 0.0
35257 C29 43.2152 45.7678 65.1612 C 0.0 **** 0.0
35258 C30 42.194 46.0426 66.0865 C 0.0 **** 0.0
35259 C31 40.8888 45.6164 65.8378 C 0.0 **** 0.0
35260 C32 42.5277 46.9147 67.2645 C 0.0 **** 0.0
35261 C33 43.8015 47.6205 67.4041 C 0.0 **** 0.0
35262 C34 44.9346 46.7176 66.9033 C 0.0 **** 0.0
35263 C35 44.6566 46.2293 65.459 C 0.0 **** 0.0
35264 C36 39.8951 45.9024 66.8723 C 0.0 **** 0.0
35265 C37 40.2405 46.5065 68.0636 C 0.0 **** 0.0
35266 C38 41.5288 47.0106 68.2775 C 0.0 **** 0.0
35267 C39 34.0907 43.8623 64.4776 C 0.0 **** 0.0
35268 C40 35.0355 43.223 65.4533 C 0.0 **** 0.0
35269 C41 36.2815 43.0259 64.9255 C 0.0 **** 0.0
35270 C42 37.3023 42.3516 65.6395 C 0.0 **** 0.0
35271 C43 37.1724 42.2343 67.007 C 0.0 **** 0.0
35272 C44 35.9528 42.6595 67.6407 C 0.0 **** 0.0
35273 C45 34.8367 43.074 66.8702 C 0.0 **** 0.0
35274 C46 33.6164 43.3451 67.4958 C 0.0 **** 0.0
35275 C47 33.4324 43.1378 68.8983 C 0.0 **** 0.0
35276 C48 34.5983 42.9673 69.6661 C 0.0 **** 0.0
35277 C49 35.8684 42.7557 69.0751 C 0.0 **** 0.0
35278 C50 37.0263 42.4492 69.8109 C 0.0 **** 0.0
35279 C51 38.2219 42.0003 69.1975 C 0.0 **** 0.0
35280 C52 38.3092 41.9746 67.7918 C 0.0 **** 0.0
35281 O53 33.1934 45.5732 54.0686 O 0.0 **** 0.0
35282 C54 35.822 44.5098 53.4608 C 0.0 **** 0.0
35283 O55 33.3877 44.7515 61.626 O 0.0 **** 0.0
35284 C56 32.0384 43.2823 69.5241 C 0.0 **** 0.0
35285 C57 30.9833 42.3609 68.8826 C 0.0 **** 0.0
35286 O58 39.2424 46.5975 69.0736 O 0.0 **** 0.0
35287 O59 43.9179 45.2291 62.9414 O 0.0 **** 0.0
35288 O60 37.174 42.7741 71.1777 O 0.0 **** 0.0
35289 H61 32.6124 45.5905 56.762 H 0.0 **** 0.0
35290 H62 37.1301 43.698 55.7263 H 0.0 **** 0.0
35291 H63 33.1631 44.2014 59.101 H 0.0 **** 0.0
35292 H64 34.0165 45.76 59.3753 H 0.0 **** 0.0
35293 H65 38.1148 42.2585 57.1412 H 0.0 **** 0.0
35294 H66 38.8714 43.9052 57.2776 H 0.0 **** 0.0
35295 H67 39.6073 41.3928 58.7247 H 0.0 **** 0.0
35296 H68 40.5835 42.316 57.5703 H 0.0 **** 0.0
35297 H69 41.3567 42.6887 59.8995 H 0.0 **** 0.0
35298 H70 40.7808 44.3231 59.2504 H 0.0 **** 0.0
35299 H71 38.5125 45.6193 64.392 H 0.0 **** 0.0
35300 H72 41.3293 45.1546 61.4669 H 0.0 **** 0.0
35301 H73 43.7684 48.5057 66.7626 H 0.0 **** 0.0
35302 H74 44.0067 47.9926 68.4363 H 0.0 **** 0.0
35303 H75 45.9038 47.2528 66.9198 H 0.0 **** 0.0
35304 H76 45.0151 45.8511 67.5838 H 0.0 **** 0.0
35305 H77 45.0018 46.9792 64.6757 H 0.0 **** 0.0
35306 H78 45.2197 45.3035 65.3481 H 0.0 **** 0.0
35307 H79 38.8586 45.6732 66.7393 H 0.0 **** 0.0
35308 H80 41.776 47.451 69.2187 H 0.0 **** 0.0
35309 H81 33.8324 44.9421 64.7458 H 0.0 **** 0.0
35310 H82 33.1873 43.2627 64.2669 H 0.0 **** 0.0
35311 H83 38.224 42.0235 65.1106 H 0.0 **** 0.0
35312 H84 32.767 43.6814 66.8716 H 0.0 **** 0.0
35313 H85 34.5424 42.9157 70.7269 H 0.0 **** 0.0
35314 H86 39.0539 41.7344 69.8478 H 0.0 **** 0.0
35315 H87 39.2368 41.7452 67.2905 H 0.0 **** 0.0
35316 H88 32.3226 46.0534 54.3719 H 0.0 **** 0.0
35317 H89 35.2514 45.0507 52.6749 H 0.0 **** 0.0
35318 H90 35.9843 43.4819 53.1477 H 0.0 **** 0.0
35319 H91 36.7826 45.0547 53.4785 H 0.0 **** 0.0
35320 H92 32.8278 44.8707 62.4475 H 0.0 **** 0.0
35321 H93 32.083 43.0733 70.5885 H 0.0 **** 0.0
35322 H94 30.0003 42.6712 69.3281 H 0.0 **** 0.0
35323 H95 31.1944 41.3025 69.0616 H 0.0 **** 0.0
35324 H96 30.9877 42.5328 67.8205 H 0.0 **** 0.0
35325 H97 38.422 46.0105 68.9086 H 0.0 **** 0.0
35326 H98 43.6758 45.0385 61.9868 H 0.0 **** 0.0
35327 H99 36.4426 43.3601 71.541 H 0.0 **** 0.0
35328 H100 38.9258 44.0602 65.14 H 0.0 **** 0.0
35329 H101 41.797 43.4425 61.9877 H 0.0 **** 0.0
35330 H102 31.7316 44.3586 69.3959 H 0.0 **** 0.0
35331 C1 14.9973 77.3477 77.9007 C 0.0 **** 0.0
35332 C2 16.2151 77.4638 78.5314 C 0.0 **** 0.0
35333 C3 16.4336 76.7972 79.7524 C 0.0 **** 0.0
35334 C4 15.4358 75.9529 80.2604 C 0.0 **** 0.0
35335 C5 14.2389 75.8558 79.6463 C 0.0 **** 0.0
35336 C6 14.011 76.5439 78.4679 C 0.0 **** 0.0
35337 C7 15.976 75.2462 81.4319 C 0.0 **** 0.0
35338 C8 17.2948 75.6529 81.5608 C 0.0 **** 0.0
35339 C9 17.714 76.5592 80.4615 C 0.0 **** 0.0
35340 C10 18.069 75.2165 82.6785 C 0.0 **** 0.0
35341 C11 17.4675 74.2729 83.6143 C 0.0 **** 0.0
35342 C12 16.0944 73.9273 83.4775 C 0.0 **** 0.0
35343 C13 15.3183 74.3982 82.3833 C 0.0 **** 0.0
35344 C14 13.7982 73.9891 82.3269 C 0.0 **** 0.0
35345 C15 13.2484 73.5188 83.6993 C 0.0 **** 0.0
35346 C16 14.1088 72.3759 84.2239 C 0.0 **** 0.0
35347 C17 15.4867 72.9123 84.4228 C 0.0 **** 0.0
35348 C18 16.2789 72.4402 85.498 C 0.0 **** 0.0
35349 C19 17.5625 72.9493 85.705 C 0.0 **** 0.0
35350 C20 18.2304 73.6987 84.6749 C 0.0 **** 0.0
35351 C21 19.614 73.9682 84.6342 C 0.0 **** 0.0
35352 C22 20.1261 75.0063 83.8967 C 0.0 **** 0.0
35353 C23 19.3678 75.6647 82.9216 C 0.0 **** 0.0
35354 C24 18.0415 72.8938 87.1229 C 0.0 **** 0.0
35355 C25 18.0261 71.5367 87.7081 C 0.0 **** 0.0
35356 C26 16.7878 70.8299 87.4906 C 0.0 **** 0.0
35357 C27 15.7655 71.3646 86.4596 C 0.0 **** 0.0
35358 C28 16.5423 69.618 88.1726 C 0.0 **** 0.0
35359 C29 17.5671 69.075 88.9911 C 0.0 **** 0.0
35360 C30 18.7421 69.7782 89.2351 C 0.0 **** 0.0
35361 C31 18.9849 71.0049 88.6129 C 0.0 **** 0.0
35362 C32 19.8246 69.182 90.1117 C 0.0 **** 0.0
35363 C33 19.6998 67.8423 90.6575 C 0.0 **** 0.0
35364 C34 18.2525 67.4578 90.8346 C 0.0 **** 0.0
35365 C35 17.4028 67.6411 89.5646 C 0.0 **** 0.0
35366 C36 20.2132 71.6415 88.8425 C 0.0 **** 0.0
35367 C37 21.2593 71.0883 89.5893 C 0.0 **** 0.0
35368 C38 21.0687 69.8382 90.2344 C 0.0 **** 0.0
35369 C39 21.5622 75.2659 84.1535 C 0.0 **** 0.0
35370 C40 21.8334 74.1366 85.093 C 0.0 **** 0.0
35371 C41 20.6732 73.3631 85.2709 C 0.0 **** 0.0
35372 C42 20.7743 72.0354 85.6502 C 0.0 **** 0.0
35373 C43 22.0082 71.5494 86.0974 C 0.0 **** 0.0
35374 C44 23.1704 72.3132 85.9251 C 0.0 **** 0.0
35375 C45 23.1016 73.629 85.4173 C 0.0 **** 0.0
35376 C46 24.2525 74.3464 85.0938 C 0.0 **** 0.0
35377 C47 25.5153 73.7716 85.302 C 0.0 **** 0.0
35378 C48 25.5789 72.522 85.9581 C 0.0 **** 0.0
35379 C49 24.4131 71.7565 86.303 C 0.0 **** 0.0
35380 C50 24.4711 70.5059 86.9866 C 0.0 **** 0.0
35381 C51 23.2862 69.7326 87.0771 C 0.0 **** 0.0
35382 C52 22.088 70.2439 86.5955 C 0.0 **** 0.0
35383 O53 14.7329 77.9513 76.6489 O 0.0 **** 0.0
35384 C54 12.6523 76.3768 77.8149 C 0.0 **** 0.0
35385 O55 19.8695 76.7975 82.249 O 0.0 **** 0.0
35386 C56 26.7345 74.5941 85.0279 C 0.0 **** 0.0
35387 C57 26.8579 75.7493 86.053 C 0.0 **** 0.0
35388 O58 22.4786 71.7438 89.7122 O 0.0 **** 0.0
35389 O59 15.4601 68.7806 87.8479 O 0.0 **** 0.0
35390 O60 25.6289 69.9502 87.5694 O 0.0 **** 0.0
35391 H61 16.9875 78.0304 78.049 H 0.0 **** 0.0
35392 H62 13.5036 75.1916 80.0248 H 0.0 **** 0.0
35393 H63 18.0022 77.514 80.8692 H 0.0 **** 0.0
35394 H64 18.5246 76.1261 79.8293 H 0.0 **** 0.0
35395 H65 13.2227 74.904 82.0651 H 0.0 **** 0.0
35396 H66 13.6591 73.183 81.5624 H 0.0 **** 0.0
35397 H67 13.2282 74.3887 84.4108 H 0.0 **** 0.0
35398 H68 12.1579 73.2387 83.5757 H 0.0 **** 0.0
35399 H69 13.7524 71.9757 85.1627 H 0.0 **** 0.0
35400 H70 14.1208 71.4843 83.51 H 0.0 **** 0.0
35401 H71 18.9664 73.4409 87.2476 H 0.0 **** 0.0
35402 H72 15.6463 70.5004 85.7705 H 0.0 **** 0.0
35403 H73 20.2142 67.1476 89.9848 H 0.0 **** 0.0
35404 H74 20.1656 67.7646 91.6633 H 0.0 **** 0.0
35405 H75 18.1337 66.4554 91.1736 H 0.0 **** 0.0
35406 H76 17.8152 68.06 91.6469 H 0.0 **** 0.0
35407 H77 17.6266 66.9194 88.7512 H 0.0 **** 0.0
35408 H78 16.3254 67.4897 89.884 H 0.0 **** 0.0
35409 H79 20.4429 72.536 88.308 H 0.0 **** 0.0
35410 H80 21.869 69.3115 90.7595 H 0.0 **** 0.0
35411 H81 22.1914 75.1128 83.2434 H 0.0 **** 0.0
35412 H82 21.6907 76.2403 84.6429 H 0.0 **** 0.0
35413 H83 19.8972 71.4481 85.6588 H 0.0 **** 0.0
35414 H84 24.2004 75.3591 84.6493 H 0.0 **** 0.0
35415 H85 26.5335 72.0505 86.1126 H 0.0 **** 0.0
35416 H86 23.3512 68.7842 87.5037 H 0.0 **** 0.0
35417 H87 21.198 69.6416 86.7387 H 0.0 **** 0.0
35418 H88 15.2992 78.7614 76.493 H 0.0 **** 0.0
35419 H89 12.7733 76.3403 76.7025 H 0.0 **** 0.0
35420 H90 12.0071 77.3122 78.1125 H 0.0 **** 0.0
35421 H91 12.165 75.4282 78.0699 H 0.0 **** 0.0
35422 H92 20.8005 77.0919 82.5006 H 0.0 **** 0.0
35423 H93 27.6379 73.9888 85.1683 H 0.0 **** 0.0
35424 H94 26.8362 75.3124 87.0391 H 0.0 **** 0.0
35425 H95 26.0131 76.4526 85.9055 H 0.0 **** 0.0
35426 H96 27.8426 76.2802 85.8767 H 0.0 **** 0.0
35427 H97 22.6228 72.5335 89.0789 H 0.0 **** 0.0
35428 H98 14.643 69.2583 87.5005 H 0.0 **** 0.0
35429 H99 26.5395 70.4044 87.4091 H 0.0 **** 0.0
35430 H100 17.2718 73.4398 87.716 H 0.0 **** 0.0
35431 H101 14.841 71.6964 86.9518 H 0.0 **** 0.0
35432 H102 26.6897 75.0501 84.0166 H 0.0 **** 0.0
35433 C1 86.9054 100.467 14.8713 C 0.0 **** 0.0
35434 C2 87.1532 100.06 16.1632 C 0.0 **** 0.0
35435 C3 86.8757 98.7606 16.5839 C 0.0 **** 0.0
35436 C4 86.2581 97.8992 15.685 C 0.0 **** 0.0
35437 C5 86.0683 98.2564 14.3284 C 0.0 **** 0.0
35438 C6 86.3571 99.5775 13.9365 C 0.0 **** 0.0
35439 C7 86.3522 96.5658 16.259 C 0.0 **** 0.0
35440 C8 87.1997 96.6115 17.3859 C 0.0 **** 0.0
35441 C9 87.5093 98.0472 17.7778 C 0.0 **** 0.0
35442 C10 87.6897 95.4264 17.9338 C 0.0 **** 0.0
35443 C11 87.2656 94.1689 17.3457 C 0.0 **** 0.0
35444 C12 86.3262 94.1758 16.2968 C 0.0 **** 0.0
35445 C13 85.8352 95.3627 15.7768 C 0.0 **** 0.0
35446 C14 84.5886 95.3502 14.8761 C 0.0 **** 0.0
35447 C15 83.8446 94.0179 14.8849 C 0.0 **** 0.0
35448 C16 84.8401 92.9047 14.5475 C 0.0 **** 0.0
35449 C17 85.941 92.8823 15.6492 C 0.0 **** 0.0
35450 C18 86.4716 91.6933 16.1903 C 0.0 **** 0.0
35451 C19 87.534 91.706 17.0859 C 0.0 **** 0.0
35452 C20 87.7812 92.9045 17.7933 C 0.0 **** 0.0
35453 C21 88.4468 92.9493 19.0585 C 0.0 **** 0.0
35454 C22 88.7174 94.1889 19.6635 C 0.0 **** 0.0
35455 C23 88.5396 95.4116 19.0558 C 0.0 **** 0.0
35456 C24 88.5622 90.5881 16.8221 C 0.0 **** 0.0
35457 C25 87.9626 89.2149 16.6038 C 0.0 **** 0.0
35458 C26 86.6375 89.107 16.0895 C 0.0 **** 0.0
35459 C27 85.8529 90.3705 15.7402 C 0.0 **** 0.0
35460 C28 86.083 87.8494 15.7972 C 0.0 **** 0.0
35461 C29 86.8676 86.6947 15.9274 C 0.0 **** 0.0
35462 C30 88.1695 86.7707 16.3938 C 0.0 **** 0.0
35463 C31 88.7762 88.0133 16.7403 C 0.0 **** 0.0
35464 C32 88.9581 85.5209 16.4993 C 0.0 **** 0.0
35465 C33 88.3424 84.1755 16.1101 C 0.0 **** 0.0
35466 C34 86.8828 84.2211 16.408 C 0.0 **** 0.0
35467 C35 86.28 85.3384 15.5266 C 0.0 **** 0.0
35468 C36 90.1434 87.9998 17.1609 C 0.0 **** 0.0
35469 C37 90.8446 86.7966 17.2406 C 0.0 **** 0.0
35470 C38 90.2829 85.5988 16.8395 C 0.0 **** 0.0
35471 C39 89.1385 94.0302 21.0864 C 0.0 **** 0.0
35472 C40 89.1134 92.5544 21.1715 C 0.0 **** 0.0
35473 C41 88.6194 91.9665 20.0153 C 0.0 **** 0.0
35474 C42 88.2395 90.6054 20.0032 C 0.0 **** 0.0
35475 C43 88.5899 89.809 21.0766 C 0.0 **** 0.0
35476 C44 89.2542 90.4285 22.201 C 0.0 **** 0.0
35477 C45 89.4518 91.8423 22.2909 C 0.0 **** 0.0
35478 C46 89.9651 92.4661 23.4603 C 0.0 **** 0.0
35479 C47 90.354 91.6132 24.4986 C 0.0 **** 0.0
35480 C48 90.1123 90.2579 24.4404 C 0.0 **** 0.0
35481 C49 89.6918 89.6145 23.2409 C 0.0 **** 0.0
35482 C50 89.6946 88.2217 23.074 C 0.0 **** 0.0
35483 C51 89.06 87.609 21.9803 C 0.0 **** 0.0
35484 C52 88.4192 88.3965 21.0118 C 0.0 **** 0.0
35485 O53 87.3023 101.729 14.5118 O 0.0 **** 0.0
35486 C54 85.9898 100.066 12.5019 C 0.0 **** 0.0
35487 O55 88.9857 96.598 19.6239 O 0.0 **** 0.0
35488 C56 91.013 92.2426 25.7416 C 0.0 **** 0.0
35489 C57 92.5445 92.2393 25.6345 C 0.0 **** 0.0
35490 O58 92.1521 86.7176 17.7666 O 0.0 **** 0.0
35491 O59 84.7306 87.7295 15.4638 O 0.0 **** 0.0
35492 O60 90.4937 87.375 23.8881 O 0.0 **** 0.0
35493 H61 87.6442 100.756 16.8005 H 0.0 **** 0.0
35494 H62 85.668 97.6346 13.5595 H 0.0 **** 0.0
35495 H63 87.0117 98.3457 18.7033 H 0.0 **** 0.0
35496 H64 88.6216 98.1903 17.7278 H 0.0 **** 0.0
35497 H65 83.9283 96.1416 15.2777 H 0.0 **** 0.0
35498 H66 84.764 95.6265 13.8442 H 0.0 **** 0.0
35499 H67 83.4522 93.8051 15.8504 H 0.0 **** 0.0
35500 H68 83.0857 94.0345 14.0819 H 0.0 **** 0.0
35501 H69 84.3767 91.9474 14.3514 H 0.0 **** 0.0
35502 H70 85.303 93.1288 13.6026 H 0.0 **** 0.0
35503 H71 89.03 90.8863 15.8452 H 0.0 **** 0.0
35504 H72 85.83 90.3581 14.6542 H 0.0 **** 0.0
35505 H73 88.4812 83.9939 15.0261 H 0.0 **** 0.0
35506 H74 88.8489 83.3427 16.6305 H 0.0 **** 0.0
35507 H75 86.43 83.215 16.2365 H 0.0 **** 0.0
35508 H76 86.7405 84.4422 17.5234 H 0.0 **** 0.0
35509 H77 86.3704 85.1002 14.3974 H 0.0 **** 0.0
35510 H78 85.1924 85.3575 15.6564 H 0.0 **** 0.0
35511 H79 90.6607 88.9077 17.3745 H 0.0 **** 0.0
35512 H80 90.8969 84.6907 16.8429 H 0.0 **** 0.0
35513 H81 90.1709 94.4305 21.2096 H 0.0 **** 0.0
35514 H82 88.4575 94.5477 21.8022 H 0.0 **** 0.0
35515 H83 87.6232 90.2101 19.186 H 0.0 **** 0.0
35516 H84 90.055 93.5282 23.5592 H 0.0 **** 0.0
35517 H85 90.3775 89.6398 25.3222 H 0.0 **** 0.0
35518 H86 89.0743 86.5357 21.8889 H 0.0 **** 0.0
35519 H87 87.8969 87.9385 20.1712 H 0.0 **** 0.0
35520 H88 87.9875 102.194 15.1054 H 0.0 **** 0.0
35521 H89 86.8596 100.168 11.8303 H 0.0 **** 0.0
35522 H90 85.5287 101.083 12.492 H 0.0 **** 0.0
35523 H91 85.314 99.3246 11.9862 H 0.0 **** 0.0
35524 H92 89.6245 96.4882 20.3959 H 0.0 **** 0.0
35525 H93 90.6994 93.2876 25.9257 H 0.0 **** 0.0
35526 H94 92.9065 92.3813 26.6628 H 0.0 **** 0.0
35527 H95 92.8647 93.0375 24.924 H 0.0 **** 0.0
35528 H96 92.9318 91.2651 25.3397 H 0.0 **** 0.0
35529 H97 92.5819 87.6225 17.8705 H 0.0 **** 0.0
35530 H98 84.4092 88.4608 14.8493 H 0.0 **** 0.0
35531 H99 91.171 87.8691 24.473 H 0.0 **** 0.0
35532 H100 89.3402 90.5523 17.6019 H 0.0 **** 0.0
35533 H101 84.8378 90.327 16.2129 H 0.0 **** 0.0
35534 H102 90.7042 91.6977 26.6897 H 0.0 **** 0.0
35535 C1 17.6558 76.3777 7.65686 C 0.0 **** 0.0
35536 C2 16.8817 77.5479 7.39865 C 0.0 **** 0.0
35537 C3 17.5226 78.8408 7.28643 C 0.0 **** 0.0
35538 C4 18.867 79.001 7.53957 C 0.0 **** 0.0
35539 C5 19.6629 77.8278 7.66369 C 0.0 **** 0.0
35540 C6 19.0769 76.5333 7.79609 C 0.0 **** 0.0
35541 C7 19.2312 80.4833 7.47123 C 0.0 **** 0.0
35542 C8 18.1264 81.1596 7.09039 C 0.0 **** 0.0
35543 C9 16.9504 80.1669 6.86366 C 0.0 **** 0.0
35544 C10 18.1963 82.5563 6.86387 C 0.0 **** 0.0
35545 C11 19.3389 83.2797 7.32945 C 0.0 **** 0.0
35546 C12 20.4424 82.5493 7.87774 C 0.0 **** 0.0
35547 C13 20.3912 81.1838 7.98318 C 0.0 **** 0.0
35548 C14 21.4931 80.3789 8.72068 C 0.0 **** 0.0
35549 C15 22.2292 81.208 9.73583 C 0.0 **** 0.0
35550 C16 22.7065 82.5062 9.12453 C 0.0 **** 0.0
35551 C17 21.4943 83.3095 8.63547 C 0.0 **** 0.0
35552 C18 21.2988 84.6786 8.86236 C 0.0 **** 0.0
35553 C19 20.4623 85.3681 8.02105 C 0.0 **** 0.0
35554 C20 19.427 84.716 7.25145 C 0.0 **** 0.0
35555 C21 18.3693 85.3669 6.47355 C 0.0 **** 0.0
35556 C22 17.2053 84.6511 6.12763 C 0.0 **** 0.0
35557 C23 17.1031 83.2647 6.30011 C 0.0 **** 0.0
35558 C24 20.9758 86.7769 7.65288 C 0.0 **** 0.0
35559 C25 22.3868 87.1838 8.13064 C 0.0 **** 0.0
35560 C26 22.9477 86.4888 9.19394 C 0.0 **** 0.0
35561 C27 22.0481 85.5188 9.92347 C 0.0 **** 0.0
35562 C28 24.3335 86.6615 9.50047 C 0.0 **** 0.0
35563 C29 25.0778 87.6724 8.82807 C 0.0 **** 0.0
35564 C30 24.4561 88.4837 7.87464 C 0.0 **** 0.0
35565 C31 23.1317 88.1861 7.45851 C 0.0 **** 0.0
35566 C32 25.1944 89.6107 7.26502 C 0.0 **** 0.0
35567 C33 26.4899 90.1105 7.81733 C 0.0 **** 0.0
35568 C34 26.7785 89.4183 9.1543 C 0.0 **** 0.0
35569 C35 26.5389 87.8952 9.05268 C 0.0 **** 0.0
35570 C36 22.6663 88.8588 6.35063 C 0.0 **** 0.0
35571 C37 23.4297 89.7971 5.61831 C 0.0 **** 0.0
35572 C38 24.687 90.1879 6.10176 C 0.0 **** 0.0
35573 C39 16.0958 85.4932 5.62236 C 0.0 **** 0.0
35574 C40 16.7629 86.8214 5.70008 C 0.0 **** 0.0
35575 C41 18.1081 86.7012 6.05884 C 0.0 **** 0.0
35576 C42 18.999 87.6909 5.63841 C 0.0 **** 0.0
35577 C43 18.4536 88.9727 5.33263 C 0.0 **** 0.0
35578 C44 17.0691 89.1615 5.17781 C 0.0 **** 0.0
35579 C45 16.2242 88.0344 5.26527 C 0.0 **** 0.0
35580 C46 14.936 88.1697 4.76445 C 0.0 **** 0.0
35581 C47 14.4594 89.3852 4.26805 C 0.0 **** 0.0
35582 C48 15.215 90.5184 4.44098 C 0.0 **** 0.0
35583 C49 16.5281 90.4454 4.87633 C 0.0 **** 0.0
35584 C50 17.3955 91.5736 4.89668 C 0.0 **** 0.0
35585 C51 18.7731 91.3788 4.94665 C 0.0 **** 0.0
35586 C52 19.3088 90.0799 5.09448 C 0.0 **** 0.0
35587 O53 17.0343 75.124 7.82602 O 0.0 **** 0.0
35588 C54 19.8649 75.2957 8.08325 C 0.0 **** 0.0
35589 O55 15.9528 82.6049 5.87561 O 0.0 **** 0.0
35590 C56 13.1778 89.4353 3.48521 C 0.0 **** 0.0
35591 C57 11.8775 89.647 4.27995 C 0.0 **** 0.0
35592 O58 22.9323 90.2923 4.41095 O 0.0 **** 0.0
35593 O59 25.0355 85.7853 10.3524 O 0.0 **** 0.0
35594 O60 16.957 92.8759 4.72996 O 0.0 **** 0.0
35595 H61 15.7857 77.5085 7.25922 H 0.0 **** 0.0
35596 H62 20.7492 77.931 7.60213 H 0.0 **** 0.0
35597 H63 16.1013 80.4267 7.49472 H 0.0 **** 0.0
35598 H64 16.7509 80.1363 5.79477 H 0.0 **** 0.0
35599 H65 21.0758 79.5422 9.29511 H 0.0 **** 0.0
35600 H66 22.1642 80.1056 7.91427 H 0.0 **** 0.0
35601 H67 21.6456 81.4604 10.6407 H 0.0 **** 0.0
35602 H68 23.1226 80.6025 10.092 H 0.0 **** 0.0
35603 H69 23.2733 83.0573 9.911 H 0.0 **** 0.0
35604 H70 23.4041 82.3077 8.24301 H 0.0 **** 0.0
35605 H71 21.2305 86.5992 6.61322 H 0.0 **** 0.0
35606 H72 22.5326 84.8587 10.6581 H 0.0 **** 0.0
35607 H73 27.2661 89.9279 7.08231 H 0.0 **** 0.0
35608 H74 26.4055 91.2268 7.96701 H 0.0 **** 0.0
35609 H75 27.8272 89.5714 9.43878 H 0.0 **** 0.0
35610 H76 26.1691 89.9215 9.96735 H 0.0 **** 0.0
35611 H77 27.0485 87.5544 8.13528 H 0.0 **** 0.0
35612 H78 26.9782 87.3763 9.9197 H 0.0 **** 0.0
35613 H79 21.6987 88.6194 5.96135 H 0.0 **** 0.0
35614 H80 25.3398 90.8543 5.51773 H 0.0 **** 0.0
35615 H81 15.9128 85.3097 4.53965 H 0.0 **** 0.0
35616 H82 15.1346 85.3979 6.2124 H 0.0 **** 0.0
35617 H83 19.9798 87.4528 5.35352 H 0.0 **** 0.0
35618 H84 14.2178 87.3756 4.81352 H 0.0 **** 0.0
35619 H85 14.7591 91.4618 4.15832 H 0.0 **** 0.0
35620 H86 19.4257 92.2057 4.88357 H 0.0 **** 0.0
35621 H87 20.4056 89.9578 5.04157 H 0.0 **** 0.0
35622 H88 16.0411 75.1809 7.68428 H 0.0 **** 0.0
35623 H89 19.4826 74.8453 9.01889 H 0.0 **** 0.0
35624 H90 20.9283 75.5668 8.35069 H 0.0 **** 0.0
35625 H91 19.797 74.5917 7.21579 H 0.0 **** 0.0
35626 H92 15.399 83.123 5.19483 H 0.0 **** 0.0
35627 H93 13.3013 90.2466 2.73818 H 0.0 **** 0.0
35628 H94 11.0471 89.7755 3.55171 H 0.0 **** 0.0
35629 H95 11.9091 90.5052 4.93348 H 0.0 **** 0.0
35630 H96 11.7416 88.7464 4.93896 H 0.0 **** 0.0
35631 H97 23.5974 90.9579 4.04354 H 0.0 **** 0.0
35632 H98 24.4435 85.3184 11.0735 H 0.0 **** 0.0
35633 H99 16.0208 93.0874 5.06753 H 0.0 **** 0.0
35634 H100 20.2797 87.5538 8.04406 H 0.0 **** 0.0
35635 H101 21.3502 86.1224 10.529 H 0.0 **** 0.0
35636 H102 13.0991 88.4943 2.91449 H 0.0 **** 0.0
35637 C1 59.5627 73.2923 102.579 C 0.0 **** 0.0
35638 C2 59.6579 74.5331 101.894 C 0.0 **** 0.0
35639 C3 60.3708 74.5392 100.658 C 0.0 **** 0.0
35640 C4 60.8926 73.4004 100.131 C 0.0 **** 0.0
35641 C5 60.9027 72.1973 100.917 C 0.0 **** 0.0
35642 C6 60.3298 72.2053 102.202 C 0.0 **** 0.0
35643 C7 61.2406 73.5781 98.6979 C 0.0 **** 0.0
35644 C8 60.9422 74.9001 98.3938 C 0.0 **** 0.0
35645 C9 60.3961 75.6388 99.61 C 0.0 **** 0.0
35646 C10 61.2391 75.4716 97.1533 C 0.0 **** 0.0
35647 C11 61.7453 74.5903 96.1265 C 0.0 **** 0.0
35648 C12 61.7636 73.188 96.3317 C 0.0 **** 0.0
35649 C13 61.6213 72.6752 97.6601 C 0.0 **** 0.0
35650 C14 62.0789 71.2477 97.9432 C 0.0 **** 0.0
35651 C15 62.9138 70.6576 96.8138 C 0.0 **** 0.0
35652 C16 62.1769 70.8256 95.4642 C 0.0 **** 0.0
35653 C17 62.0154 72.2921 95.1593 C 0.0 **** 0.0
35654 C18 62.0489 72.8554 93.8855 C 0.0 **** 0.0
35655 C19 61.99 74.2596 93.7065 C 0.0 **** 0.0
35656 C20 62.0823 75.1321 94.8518 C 0.0 **** 0.0
35657 C21 62.2203 76.5233 94.762 C 0.0 **** 0.0
35658 C22 61.5293 77.396 95.6282 C 0.0 **** 0.0
35659 C23 61.0079 76.8875 96.8386 C 0.0 **** 0.0
35660 C24 61.7393 74.8063 92.276 C 0.0 **** 0.0
35661 C25 60.8216 73.9178 91.5066 C 0.0 **** 0.0
35662 C26 60.9581 72.5568 91.709 C 0.0 **** 0.0
35663 C27 62.0126 72.0292 92.6162 C 0.0 **** 0.0
35664 C28 60.0897 71.6482 91.0735 C 0.0 **** 0.0
35665 C29 58.9056 72.1318 90.4781 C 0.0 **** 0.0
35666 C30 58.7649 73.5203 90.2709 C 0.0 **** 0.0
35667 C31 59.8392 74.3782 90.5922 C 0.0 **** 0.0
35668 C32 57.5621 74.0444 89.5941 C 0.0 **** 0.0
35669 C33 56.3058 73.2292 89.6124 C 0.0 **** 0.0
35670 C34 56.6231 71.7525 89.28 C 0.0 **** 0.0
35671 C35 57.7468 71.1348 90.1202 C 0.0 **** 0.0
35672 C36 59.8895 75.6806 90.0622 C 0.0 **** 0.0
35673 C37 58.8198 76.1548 89.2737 C 0.0 **** 0.0
35674 C38 57.6523 75.3811 89.1107 C 0.0 **** 0.0
35675 C39 61.7355 78.8299 95.2058 C 0.0 **** 0.0
35676 C40 62.6713 78.628 94.0481 C 0.0 **** 0.0
35677 C41 63.0521 77.2908 93.988 C 0.0 **** 0.0
35678 C42 64.1164 76.8074 93.1695 C 0.0 **** 0.0
35679 C43 64.6395 77.6699 92.1845 C 0.0 **** 0.0
35680 C44 64.0994 78.9927 92.0925 C 0.0 **** 0.0
35681 C45 63.1613 79.5332 93.0909 C 0.0 **** 0.0
35682 C46 62.7161 80.8221 93.0118 C 0.0 **** 0.0
35683 C47 63.113 81.6245 91.9074 C 0.0 **** 0.0
35684 C48 63.9202 81.1027 90.8976 C 0.0 **** 0.0
35685 C49 64.4769 79.8216 90.996 C 0.0 **** 0.0
35686 C50 65.3585 79.2647 89.9431 C 0.0 **** 0.0
35687 C51 65.9095 77.9929 90.1248 C 0.0 **** 0.0
35688 C52 65.5659 77.1849 91.1858 C 0.0 **** 0.0
35689 O53 58.5955 73.1713 103.626 O 0.0 **** 0.0
35690 C54 60.4247 70.9534 103.058 C 0.0 **** 0.0
35691 O55 60.5187 77.7608 97.8078 O 0.0 **** 0.0
35692 C56 62.42 82.9524 91.6875 C 0.0 **** 0.0
35693 C57 61.2682 82.769 90.6718 C 0.0 **** 0.0
35694 O58 58.8325 77.44 88.7363 O 0.0 **** 0.0
35695 O59 60.4247 70.2817 90.9284 O 0.0 **** 0.0
35696 O60 65.7607 79.963 88.8137 O 0.0 **** 0.0
35697 H61 59.1513 75.4986 102.218 H 0.0 **** 0.0
35698 H62 61.4037 71.3572 100.529 H 0.0 **** 0.0
35699 H63 61.0558 76.4869 99.9704 H 0.0 **** 0.0
35700 H64 59.343 76.0183 99.4062 H 0.0 **** 0.0
35701 H65 62.7211 71.2513 98.8025 H 0.0 **** 0.0
35702 H66 61.1995 70.5804 98.1426 H 0.0 **** 0.0
35703 H67 63.8697 71.1778 96.7245 H 0.0 **** 0.0
35704 H68 63.0897 69.5595 96.9255 H 0.0 **** 0.0
35705 H69 62.8339 70.3835 94.6932 H 0.0 **** 0.0
35706 H70 61.1563 70.338 95.5111 H 0.0 **** 0.0
35707 H71 61.2867 75.8436 92.2858 H 0.0 **** 0.0
35708 H72 61.8515 70.9355 92.865 H 0.0 **** 0.0
35709 H73 55.8232 73.298 90.5983 H 0.0 **** 0.0
35710 H74 55.566 73.5885 88.9167 H 0.0 **** 0.0
35711 H75 55.7674 71.1468 89.4466 H 0.0 **** 0.0
35712 H76 56.8616 71.6975 88.24 H 0.0 **** 0.0
35713 H77 57.3352 70.7109 91.0871 H 0.0 **** 0.0
35714 H78 58.1581 70.2641 89.5344 H 0.0 **** 0.0
35715 H79 60.738 76.3189 90.1792 H 0.0 **** 0.0
35716 H80 56.7916 75.9028 88.7339 H 0.0 **** 0.0
35717 H81 60.7409 79.2052 94.918 H 0.0 **** 0.0
35718 H82 62.1937 79.4015 95.9744 H 0.0 **** 0.0
35719 H83 64.3579 75.7592 93.2661 H 0.0 **** 0.0
35720 H84 61.9145 81.1501 93.695 H 0.0 **** 0.0
35721 H85 64.1203 81.7665 90.0882 H 0.0 **** 0.0
35722 H86 66.6385 77.6029 89.4544 H 0.0 **** 0.0
35723 H87 65.9708 76.198 91.2874 H 0.0 **** 0.0
35724 H88 58.1661 74.0782 103.8 H 0.0 **** 0.0
35725 H89 61.4533 70.5391 103.017 H 0.0 **** 0.0
35726 H90 59.7471 70.1637 102.664 H 0.0 **** 0.0
35727 H91 60.2097 71.1933 104.089 H 0.0 **** 0.0
35728 H92 60.4379 78.7261 97.5724 H 0.0 **** 0.0
35729 H93 61.9524 83.2697 92.637 H 0.0 **** 0.0
35730 H94 60.5227 82.1216 91.1568 H 0.0 **** 0.0
35731 H95 61.6875 82.2803 89.7475 H 0.0 **** 0.0
35732 H96 60.8134 83.735 90.4265 H 0.0 **** 0.0
35733 H97 59.6595 77.9894 88.9821 H 0.0 **** 0.0
35734 H98 61.4248 70.101 90.8608 H 0.0 **** 0.0
35735 H99 65.298 80.8583 88.7032 H 0.0 **** 0.0
35736 H100 62.7381 74.744 91.8218 H 0.0 **** 0.0
35737 H101 62.9738 72.1381 92.0726 H 0.0 **** 0.0
35738 H102 63.0994 83.8087 91.3917 H 0.0 **** 0.0
35739 C1 75.1318 51.2824 28.4686 C 0.0 **** 0.0
35740 C2 75.6421 49.9653 28.6845 C 0.0 **** 0.0
35741 C3 77.0357 49.8128 28.8569 C 0.0 **** 0.0
35742 C4 77.8967 50.8642 28.7532 C 0.0 **** 0.0
35743 C5 77.3741 52.178 28.7287 C 0.0 **** 0.0
35744 C6 76.0125 52.3592 28.4765 C 0.0 **** 0.0
35745 C7 79.2414 50.384 28.9313 C 0.0 **** 0.0
35746 C8 79.1333 49.0686 29.3747 C 0.0 **** 0.0
35747 C9 77.731 48.5407 29.1989 C 0.0 **** 0.0
35748 C10 80.234 48.3395 29.75 C 0.0 **** 0.0
35749 C11 81.498 48.835 29.3274 C 0.0 **** 0.0
35750 C12 81.6013 50.109 28.6948 C 0.0 **** 0.0
35751 C13 80.4666 50.9592 28.5345 C 0.0 **** 0.0
35752 C14 80.5795 52.2731 27.7906 C 0.0 **** 0.0
35753 C15 81.602 52.1021 26.5832 C 0.0 **** 0.0
35754 C16 82.9698 51.6853 27.1147 C 0.0 **** 0.0
35755 C17 82.9117 50.5044 28.118 C 0.0 **** 0.0
35756 C18 84.0725 49.8383 28.5499 C 0.0 **** 0.0
35757 C19 83.9764 48.6751 29.3477 C 0.0 **** 0.0
35758 C20 82.6716 48.0579 29.4707 C 0.0 **** 0.0
35759 C21 82.4458 46.6954 29.7458 C 0.0 **** 0.0
35760 C22 81.2416 46.2437 30.3445 C 0.0 **** 0.0
35761 C23 80.1502 47.1273 30.4522 C 0.0 **** 0.0
35762 C24 85.1824 48.2589 30.1425 C 0.0 **** 0.0
35763 C25 86.4931 48.4304 29.3883 C 0.0 **** 0.0
35764 C26 86.6069 49.5564 28.5158 C 0.0 **** 0.0
35765 C27 85.4062 50.3351 28.1296 C 0.0 **** 0.0
35766 C28 87.8146 49.8822 27.9541 C 0.0 **** 0.0
35767 C29 88.9501 49.0762 28.153 C 0.0 **** 0.0
35768 C30 88.8835 48.0437 29.1428 C 0.0 **** 0.0
35769 C31 87.656 47.6765 29.7443 C 0.0 **** 0.0
35770 C32 90.1346 47.294 29.4876 C 0.0 **** 0.0
35771 C33 91.4259 47.7774 28.947 C 0.0 **** 0.0
35772 C34 91.1948 48.3137 27.517 C 0.0 **** 0.0
35773 C35 90.2463 49.4869 27.4277 C 0.0 **** 0.0
35774 C36 87.6443 46.5871 30.6777 C 0.0 **** 0.0
35775 C37 88.8408 45.871 31.0083 C 0.0 **** 0.0
35776 C38 90.0773 46.1983 30.3906 C 0.0 **** 0.0
35777 C39 81.4139 44.8505 30.8318 C 0.0 **** 0.0
35778 C40 82.7927 44.5314 30.2422 C 0.0 **** 0.0
35779 C41 83.2312 45.595 29.5266 C 0.0 **** 0.0
35780 C42 84.3853 45.5377 28.7419 C 0.0 **** 0.0
35781 C43 85.164 44.4097 28.7949 C 0.0 **** 0.0
35782 C44 84.6895 43.2287 29.4111 C 0.0 **** 0.0
35783 C45 83.4763 43.2847 30.1792 C 0.0 **** 0.0
35784 C46 82.9185 42.1017 30.701 C 0.0 **** 0.0
35785 C47 83.6554 40.8965 30.572 C 0.0 **** 0.0
35786 C48 84.8643 40.8658 29.8807 C 0.0 **** 0.0
35787 C49 85.3951 42.0255 29.2436 C 0.0 **** 0.0
35788 C50 86.6437 42.0255 28.5324 C 0.0 **** 0.0
35789 C51 87.1361 43.24 28.0109 C 0.0 **** 0.0
35790 C52 86.4019 44.4129 28.0985 C 0.0 **** 0.0
35791 O53 73.7865 51.4943 28.1856 O 0.0 **** 0.0
35792 C54 75.5731 53.7339 28.0539 C 0.0 **** 0.0
35793 O55 78.9769 46.7328 31.0945 O 0.0 **** 0.0
35794 C56 83.2638 39.691 31.4753 C 0.0 **** 0.0
35795 C57 83.4718 40.1081 32.9586 C 0.0 **** 0.0
35796 O58 88.8508 44.8259 31.9252 O 0.0 **** 0.0
35797 O59 88.0503 51.0046 27.1806 O 0.0 **** 0.0
35798 O60 87.4509 40.8892 28.4872 O 0.0 **** 0.0
35799 H61 74.9428 49.1298 28.7531 H 0.0 **** 0.0
35800 H62 78.0337 53.0927 28.7142 H 0.0 **** 0.0
35801 H63 77.6894 47.7519 28.3844 H 0.0 **** 0.0
35802 H64 77.3126 48.1591 30.1644 H 0.0 **** 0.0
35803 H65 79.6212 52.4989 27.3461 H 0.0 **** 0.0
35804 H66 80.9524 53.0646 28.4638 H 0.0 **** 0.0
35805 H67 81.2306 51.3595 25.7985 H 0.0 **** 0.0
35806 H68 81.7524 53.0108 25.9835 H 0.0 **** 0.0
35807 H69 83.5619 51.5321 26.2256 H 0.0 **** 0.0
35808 H70 83.3803 52.5731 27.6363 H 0.0 **** 0.0
35809 H71 85.251 48.8995 31.0526 H 0.0 **** 0.0
35810 H72 85.515 51.3468 28.4799 H 0.0 **** 0.0
35811 H73 91.8154 48.6199 29.5147 H 0.0 **** 0.0
35812 H74 92.1347 46.9509 28.8952 H 0.0 **** 0.0
35813 H75 92.154 48.6792 27.1319 H 0.0 **** 0.0
35814 H76 90.8373 47.4683 26.8897 H 0.0 **** 0.0
35815 H77 90.6795 50.3874 27.8819 H 0.0 **** 0.0
35816 H78 90.0534 49.6784 26.3766 H 0.0 **** 0.0
35817 H79 86.7638 46.2627 31.1003 H 0.0 **** 0.0
35818 H80 90.9246 45.6795 30.7241 H 0.0 **** 0.0
35819 H81 81.4274 44.8748 31.9387 H 0.0 **** 0.0
35820 H82 80.605 44.2224 30.4784 H 0.0 **** 0.0
35821 H83 84.6129 46.3257 28.04 H 0.0 **** 0.0
35822 H84 82.0258 42.0624 31.2515 H 0.0 **** 0.0
35823 H85 85.3178 39.8718 29.8548 H 0.0 **** 0.0
35824 H86 88.0762 43.2039 27.4675 H 0.0 **** 0.0
35825 H87 86.7834 45.3133 27.6261 H 0.0 **** 0.0
35826 H88 73.2122 50.6572 28.379 H 0.0 **** 0.0
35827 H89 74.5 53.8318 27.9134 H 0.0 **** 0.0
35828 H90 75.9671 54.0138 27.0525 H 0.0 **** 0.0
35829 H91 75.9145 54.5117 28.7623 H 0.0 **** 0.0
35830 H92 79.0661 45.8909 31.6314 H 0.0 **** 0.0
35831 H93 82.2477 39.3129 31.309 H 0.0 **** 0.0
35832 H94 83.3851 39.1901 33.6206 H 0.0 **** 0.0
35833 H95 82.6846 40.8432 33.2798 H 0.0 **** 0.0
35834 H96 84.4267 40.5641 33.1624 H 0.0 **** 0.0
35835 H97 87.9723 44.6703 32.4194 H 0.0 **** 0.0
35836 H98 87.2567 51.6018 26.974 H 0.0 **** 0.0
35837 H99 87.2251 40.0988 29.0454 H 0.0 **** 0.0
35838 H100 85.0272 47.2575 30.5083 H 0.0 **** 0.0
35839 H101 85.3674 50.3547 27.0335 H 0.0 **** 0.0
35840 H102 83.9074 38.8188 31.2506 H 0.0 **** 0.0
35841 C1 74.6737 53.6392 1.51471 C 0.0 **** 0.0
35842 C2 75.7335 53.3106 2.39754 C 0.0 **** 0.0
35843 C3 75.8413 54.0299 3.60027 C 0.0 **** 0.0
35844 C4 74.9862 55.0414 3.9251 C 0.0 **** 0.0
35845 C5 73.877 55.3012 3.11406 C 0.0 **** 0.0
35846 C6 73.77 54.6522 1.8525 C 0.0 **** 0.0
35847 C7 75.3369 55.5332 5.27852 C 0.0 **** 0.0
35848 C8 76.4015 54.7366 5.7322 C 0.0 **** 0.0
35849 C9 76.7932 53.7225 4.72022 C 0.0 **** 0.0
35850 C10 76.8729 54.8828 7.05166 C 0.0 **** 0.0
35851 C11 76.2946 55.9022 7.89581 C 0.0 **** 0.0
35852 C12 75.3227 56.7741 7.34131 C 0.0 **** 0.0
35853 C13 74.8773 56.6234 6.01907 C 0.0 **** 0.0
35854 C14 73.897 57.6217 5.45099 C 0.0 **** 0.0
35855 C15 74.1445 59.0255 6.09091 C 0.0 **** 0.0
35856 C16 73.9733 58.9784 7.61537 C 0.0 **** 0.0
35857 C17 74.7326 57.8308 8.18946 C 0.0 **** 0.0
35858 C18 74.8905 57.6242 9.59188 C 0.0 **** 0.0
35859 C19 75.9197 56.8021 10.089 C 0.0 **** 0.0
35860 C20 76.724 56.0534 9.23773 C 0.0 **** 0.0
35861 C21 77.8786 55.3126 9.63312 C 0.0 **** 0.0
35862 C22 78.2947 54.2221 8.91656 C 0.0 **** 0.0
35863 C23 77.8526 54.0276 7.61276 C 0.0 **** 0.0
35864 C24 75.854 56.4875 11.5622 C 0.0 **** 0.0
35865 C25 74.4161 56.3446 12.0158 C 0.0 **** 0.0
35866 C26 73.5492 57.4155 11.7397 C 0.0 **** 0.0
35867 C27 74.0011 58.3747 10.6258 C 0.0 **** 0.0
35868 C28 72.2647 57.5159 12.3954 C 0.0 **** 0.0
35869 C29 71.8389 56.4641 13.2624 C 0.0 **** 0.0
35870 C30 72.6307 55.3176 13.3466 C 0.0 **** 0.0
35871 C31 73.8844 55.2129 12.7188 C 0.0 **** 0.0
35872 C32 72.142 54.1698 14.1663 C 0.0 **** 0.0
35873 C33 70.8932 54.3096 15.0379 C 0.0 **** 0.0
35874 C34 70.595 55.7878 15.3421 C 0.0 **** 0.0
35875 C35 70.577 56.6469 14.0552 C 0.0 **** 0.0
35876 C36 74.513 53.9476 12.6258 C 0.0 **** 0.0
35877 C37 73.9462 52.8249 13.224 C 0.0 **** 0.0
35878 C38 72.8789 52.9367 14.0836 C 0.0 **** 0.0
35879 C39 79.3288 53.3915 9.70456 C 0.0 **** 0.0
35880 C40 79.6441 54.3279 10.8034 C 0.0 **** 0.0
35881 C41 78.7562 55.4034 10.7064 C 0.0 **** 0.0
35882 C42 78.8674 56.4468 11.6205 C 0.0 **** 0.0
35883 C43 79.7676 56.3691 12.6456 C 0.0 **** 0.0
35884 C44 80.6601 55.2463 12.7693 C 0.0 **** 0.0
35885 C45 80.5618 54.1598 11.8584 C 0.0 **** 0.0
35886 C46 81.4247 53.0419 12.0343 C 0.0 **** 0.0
35887 C47 82.4233 53.0811 13.0664 C 0.0 **** 0.0
35888 C48 82.5958 54.2208 13.8344 C 0.0 **** 0.0
35889 C49 81.7169 55.2961 13.7319 C 0.0 **** 0.0
35890 C50 81.8462 56.4496 14.5432 C 0.0 **** 0.0
35891 C51 80.9247 57.4874 14.4438 C 0.0 **** 0.0
35892 C52 79.8863 57.4566 13.4766 C 0.0 **** 0.0
35893 O53 74.5904 52.9075 0.349802 O 0.0 **** 0.0
35894 C54 72.6402 54.9956 0.970011 C 0.0 **** 0.0
35895 O55 78.3886 52.9976 6.82085 O 0.0 **** 0.0
35896 C56 83.3715 51.8887 13.3268 C 0.0 **** 0.0
35897 C57 84.8187 52.3068 13.0499 C 0.0 **** 0.0
35898 O58 74.4909 51.5805 13.1031 O 0.0 **** 0.0
35899 O59 71.3862 58.5846 12.1398 O 0.0 **** 0.0
35900 O60 82.9392 56.77 15.3949 O 0.0 **** 0.0
35901 H61 76.4617 52.5745 2.14554 H 0.0 **** 0.0
35902 H62 73.1452 56.0205 3.39518 H 0.0 **** 0.0
35903 H63 77.8588 53.9217 4.3809 H 0.0 **** 0.0
35904 H64 76.586 52.6974 5.07448 H 0.0 **** 0.0
35905 H65 74.0884 57.7934 4.36491 H 0.0 **** 0.0
35906 H66 72.9072 57.31 5.66767 H 0.0 **** 0.0
35907 H67 75.1329 59.3833 5.77574 H 0.0 **** 0.0
35908 H68 73.4525 59.7935 5.63984 H 0.0 **** 0.0
35909 H69 74.3449 59.9432 8.03907 H 0.0 **** 0.0
35910 H70 72.8914 58.8455 7.81522 H 0.0 **** 0.0
35911 H71 76.4346 55.6279 11.8312 H 0.0 **** 0.0
35912 H72 73.113 58.8419 10.1167 H 0.0 **** 0.0
35913 H73 70.0153 53.913 14.5961 H 0.0 **** 0.0
35914 H74 71.0461 53.8269 16.0207 H 0.0 **** 0.0
35915 H75 69.6223 55.8539 15.8324 H 0.0 **** 0.0
35916 H76 71.3249 56.1754 16.1145 H 0.0 **** 0.0
35917 H77 69.6995 56.4279 13.4775 H 0.0 **** 0.0
35918 H78 70.4415 57.7201 14.3385 H 0.0 **** 0.0
35919 H79 75.3741 53.8069 11.9531 H 0.0 **** 0.0
35920 H80 72.5411 52.0631 14.7306 H 0.0 **** 0.0
35921 H81 78.7728 52.4463 10.0463 H 0.0 **** 0.0
35922 H82 80.2739 53.1754 9.09153 H 0.0 **** 0.0
35923 H83 78.3262 57.3439 11.4717 H 0.0 **** 0.0
35924 H84 81.3401 52.2027 11.3565 H 0.0 **** 0.0
35925 H85 83.3911 54.2803 14.5646 H 0.0 **** 0.0
35926 H86 81.0235 58.3513 15.1279 H 0.0 **** 0.0
35927 H87 79.1226 58.2334 13.4792 H 0.0 **** 0.0
35928 H88 74.2611 53.4396 -0.446912 H 0.0 **** 0.0
35929 H89 72.2552 54.1062 0.417459 H 0.0 **** 0.0
35930 H90 72.9414 55.7526 0.210059 H 0.0 **** 0.0
35931 H91 71.7687 55.3822 1.57948 H 0.0 **** 0.0
35932 H92 79.0471 52.3468 7.27506 H 0.0 **** 0.0
35933 H93 83.2431 51.5449 14.4026 H 0.0 **** 0.0
35934 H94 85.547 51.5676 13.5015 H 0.0 **** 0.0
35935 H95 85.019 53.2747 13.4543 H 0.0 **** 0.0
35936 H96 84.9279 52.3591 12.0015 H 0.0 **** 0.0
35937 H97 75.3812 51.5029 12.6224 H 0.0 **** 0.0
35938 H98 71.8268 59.3924 11.6608 H 0.0 **** 0.0
35939 H99 83.77 56.2334 15.2258 H 0.0 **** 0.0
35940 H100 76.3173 57.3479 12.1505 H 0.0 **** 0.0
35941 H101 74.5914 59.1128 11.0975 H 0.0 **** 0.0
35942 H102 83.1236 51.0158 12.6656 H 0.0 **** 0.0
35943 C1 11.1412 82.8295 58.2065 C 0.0 **** 0.0
35944 C2 12.4285 83.0038 58.6943 C 0.0 **** 0.0
35945 C3 12.9292 82.0921 59.6459 C 0.0 **** 0.0
35946 C4 12.124 81.0623 60.1774 C 0.0 **** 0.0
35947 C5 10.7977 80.8994 59.7397 C 0.0 **** 0.0
35948 C6 10.2843 81.7825 58.7237 C 0.0 **** 0.0
35949 C7 12.9948 80.1336 60.9491 C 0.0 **** 0.0
35950 C8 14.2983 80.5643 60.7103 C 0.0 **** 0.0
35951 C9 14.3455 81.8163 59.8819 C 0.0 **** 0.0
35952 C10 15.3661 79.81 61.1724 C 0.0 **** 0.0
35953 C11 15.1152 78.5521 61.795 C 0.0 **** 0.0
35954 C12 13.8037 78.2336 62.197 C 0.0 **** 0.0
35955 C13 12.7311 79.0458 61.7658 C 0.0 **** 0.0
35956 C14 11.3201 78.6653 62.1622 C 0.0 **** 0.0
35957 C15 11.2724 77.8824 63.4894 C 0.0 **** 0.0
35958 C16 12.1888 76.687 63.5735 C 0.0 **** 0.0
35959 C17 13.5997 76.9903 63.0928 C 0.0 **** 0.0
35960 C18 14.6955 76.1377 63.1375 C 0.0 **** 0.0
35961 C19 15.8774 76.3799 62.4372 C 0.0 **** 0.0
35962 C20 16.1655 77.6678 62.0189 C 0.0 **** 0.0
35963 C21 17.4858 78.1146 61.8752 C 0.0 **** 0.0
35964 C22 17.7805 79.3078 61.2678 C 0.0 **** 0.0
35965 C23 16.7429 80.1818 60.9223 C 0.0 **** 0.0
35966 C24 16.6046 75.1894 61.8706 C 0.0 **** 0.0
35967 C25 16.9034 74.1635 62.9182 C 0.0 **** 0.0
35968 C26 15.8767 73.9547 63.8822 C 0.0 **** 0.0
35969 C27 14.665 74.8747 64.0031 C 0.0 **** 0.0
35970 C28 16.0149 72.8829 64.8263 C 0.0 **** 0.0
35971 C29 17.2252 72.1365 64.8334 C 0.0 **** 0.0
35972 C30 18.2923 72.4479 63.9907 C 0.0 **** 0.0
35973 C31 18.1198 73.4216 62.9831 C 0.0 **** 0.0
35974 C32 19.6071 71.7222 64.1558 C 0.0 **** 0.0
35975 C33 19.7086 70.5084 65.0957 C 0.0 **** 0.0
35976 C34 18.5494 70.4078 66.125 C 0.0 **** 0.0
35977 C35 17.1974 70.8116 65.501 C 0.0 **** 0.0
35978 C36 19.2213 73.6374 62.1258 C 0.0 **** 0.0
35979 C37 20.4432 73.0011 62.2655 C 0.0 **** 0.0
35980 C38 20.6324 72.0331 63.2852 C 0.0 **** 0.0
35981 C39 19.2846 79.5634 61.33 C 0.0 **** 0.0
35982 C40 19.7717 78.3653 62.0671 C 0.0 **** 0.0
35983 C41 18.6924 77.611 62.4034 C 0.0 **** 0.0
35984 C42 18.822 76.6315 63.3885 C 0.0 **** 0.0
35985 C43 20.0868 76.1943 63.8086 C 0.0 **** 0.0
35986 C44 21.2396 76.8712 63.2747 C 0.0 **** 0.0
35987 C45 21.0821 77.9653 62.4332 C 0.0 **** 0.0
35988 C46 22.1964 78.7042 62.0718 C 0.0 **** 0.0
35989 C47 23.4787 78.3493 62.5075 C 0.0 **** 0.0
35990 C48 23.6751 77.2439 63.3187 C 0.0 **** 0.0
35991 C49 22.5423 76.4917 63.7756 C 0.0 **** 0.0
35992 C50 22.6427 75.546 64.8194 C 0.0 **** 0.0
35993 C51 21.5076 74.9171 65.3292 C 0.0 **** 0.0
35994 C52 20.2584 75.2177 64.8326 C 0.0 **** 0.0
35995 O53 10.6081 83.6674 57.182 O 0.0 **** 0.0
35996 C54 9.03504 81.4679 57.9565 C 0.0 **** 0.0
35997 O55 17.094 81.5121 60.5574 O 0.0 **** 0.0
35998 C56 24.6756 79.1167 62.1298 C 0.0 **** 0.0
35999 C57 25.3315 79.7572 63.351 C 0.0 **** 0.0
36000 O58 21.543 73.3518 61.5264 O 0.0 **** 0.0
36001 O59 15.0501 72.5951 65.7781 O 0.0 **** 0.0
36002 O60 23.9016 75.2572 65.367 O 0.0 **** 0.0
36003 H61 13.1393 83.7279 58.2912 H 0.0 **** 0.0
36004 H62 10.1144 80.1211 60.1804 H 0.0 **** 0.0
36005 H63 14.801 82.6242 60.4581 H 0.0 **** 0.0
36006 H64 14.8409 81.6495 58.9169 H 0.0 **** 0.0
36007 H65 10.6668 79.5447 62.2872 H 0.0 **** 0.0
36008 H66 10.8873 78.0852 61.349 H 0.0 **** 0.0
36009 H67 10.1963 77.5255 63.7197 H 0.0 **** 0.0
36010 H68 11.5753 78.6009 64.2889 H 0.0 **** 0.0
36011 H69 12.2323 76.3672 64.6209 H 0.0 **** 0.0
36012 H70 11.7434 75.872 62.9318 H 0.0 **** 0.0
36013 H71 15.953 74.7297 61.0925 H 0.0 **** 0.0
36014 H72 13.7201 74.2897 63.781 H 0.0 **** 0.0
36015 H73 19.8313 69.5325 64.5595 H 0.0 **** 0.0
36016 H74 20.6134 70.6625 65.7293 H 0.0 **** 0.0
36017 H75 18.5159 69.3754 66.4677 H 0.0 **** 0.0
36018 H76 18.7983 70.9862 67.0406 H 0.0 **** 0.0
36019 H77 16.9119 70.0248 64.756 H 0.0 **** 0.0
36020 H78 16.4619 70.7622 66.3122 H 0.0 **** 0.0
36021 H79 19.1261 74.2836 61.3061 H 0.0 **** 0.0
36022 H80 21.6257 71.5507 63.2904 H 0.0 **** 0.0
36023 H81 19.8005 79.6262 60.3639 H 0.0 **** 0.0
36024 H82 19.5593 80.4588 61.8967 H 0.0 **** 0.0
36025 H83 18.0146 76.2374 63.8926 H 0.0 **** 0.0
36026 H84 22.0315 79.5381 61.4929 H 0.0 **** 0.0
36027 H85 24.6533 77.1203 63.7814 H 0.0 **** 0.0
36028 H86 21.6023 74.2207 66.1483 H 0.0 **** 0.0
36029 H87 19.4079 74.8325 65.358 H 0.0 **** 0.0
36030 H88 11.2385 84.3317 56.8404 H 0.0 **** 0.0
36031 H89 9.29276 81.4588 56.9214 H 0.0 **** 0.0
36032 H90 8.26638 82.2445 58.0817 H 0.0 **** 0.0
36033 H91 8.68224 80.4678 58.1996 H 0.0 **** 0.0
36034 H92 17.9819 81.5805 60.1019 H 0.0 **** 0.0
36035 H93 25.4269 78.4608 61.6341 H 0.0 **** 0.0
36036 H94 25.4898 79.1415 64.2431 H 0.0 **** 0.0
36037 H95 24.8286 80.6468 63.7172 H 0.0 **** 0.0
36038 H96 26.3157 80.062 62.9604 H 0.0 **** 0.0
36039 H97 21.4903 74.3244 61.0913 H 0.0 **** 0.0
36040 H98 14.1133 72.966 65.7207 H 0.0 **** 0.0
36041 H99 24.6566 75.1556 64.698 H 0.0 **** 0.0
36042 H100 17.4674 75.5028 61.2418 H 0.0 **** 0.0
36043 H101 14.5486 75.23 65.0295 H 0.0 **** 0.0
36044 H102 24.4733 79.9229 61.398 H 0.0 **** 0.0
36045 C1 52.1704 64.8242 94.1304 C 0.0 **** 0.0
36046 C2 51.5023 65.5016 95.1801 C 0.0 **** 0.0
36047 C3 51.9245 66.757 95.5554 C 0.0 **** 0.0
36048 C4 53.0671 67.3403 95.0312 C 0.0 **** 0.0
36049 C5 53.8128 66.6672 94.0174 C 0.0 **** 0.0
36050 C6 53.2806 65.4253 93.5017 C 0.0 **** 0.0
36051 C7 53.2693 68.5804 95.8152 C 0.0 **** 0.0
36052 C8 52.2685 68.6581 96.7804 C 0.0 **** 0.0
36053 C9 51.3774 67.5044 96.7112 C 0.0 **** 0.0
36054 C10 52.2451 69.6744 97.7661 C 0.0 **** 0.0
36055 C11 53.2156 70.7133 97.6573 C 0.0 **** 0.0
36056 C12 54.2913 70.5874 96.7484 C 0.0 **** 0.0
36057 C13 54.3671 69.4682 95.864 C 0.0 **** 0.0
36058 C14 55.5969 69.3038 95.0316 C 0.0 **** 0.0
36059 C15 56.8074 69.9565 95.7066 C 0.0 **** 0.0
36060 C16 56.6104 71.4119 95.9419 C 0.0 **** 0.0
36061 C17 55.3471 71.6323 96.7439 C 0.0 **** 0.0
36062 C18 55.1214 72.8496 97.398 C 0.0 **** 0.0
36063 C19 53.9024 73.0041 98.1473 C 0.0 **** 0.0
36064 C20 53.148 71.8319 98.5555 C 0.0 **** 0.0
36065 C21 52.1832 71.7618 99.661 C 0.0 **** 0.0
36066 C22 51.3232 70.6676 99.7321 C 0.0 **** 0.0
36067 C23 51.2806 69.6955 98.79 C 0.0 **** 0.0
36068 C24 53.2642 74.3635 98.077 C 0.0 **** 0.0
36069 C25 54.1983 75.5285 98.0334 C 0.0 **** 0.0
36070 C26 55.5486 75.3547 97.7062 C 0.0 **** 0.0
36071 C27 56.0923 74.041 97.2226 C 0.0 **** 0.0
36072 C28 56.4112 76.4861 97.6805 C 0.0 **** 0.0
36073 C29 55.9563 77.7464 98.1774 C 0.0 **** 0.0
36074 C30 54.5595 77.901 98.389 C 0.0 **** 0.0
36075 C31 53.6956 76.7974 98.3437 C 0.0 **** 0.0
36076 C32 53.9782 79.2037 98.765 C 0.0 **** 0.0
36077 C33 54.8387 80.4326 98.6563 C 0.0 **** 0.0
36078 C34 56.2722 80.1313 99.0659 C 0.0 **** 0.0
36079 C35 56.8718 78.9274 98.305 C 0.0 **** 0.0
36080 C36 52.3086 77.0024 98.4532 C 0.0 **** 0.0
36081 C37 51.7687 78.2343 98.8252 C 0.0 **** 0.0
36082 C38 52.6176 79.3163 99.0151 C 0.0 **** 0.0
36083 C39 50.4542 70.6644 100.965 C 0.0 **** 0.0
36084 C40 50.9475 71.9337 101.573 C 0.0 **** 0.0
36085 C41 51.9567 72.532 100.793 C 0.0 **** 0.0
36086 C42 52.7325 73.5491 101.235 C 0.0 **** 0.0
36087 C43 52.3671 74.1811 102.418 C 0.0 **** 0.0
36088 C44 51.3424 73.6164 103.241 C 0.0 **** 0.0
36089 C45 50.6115 72.4708 102.821 C 0.0 **** 0.0
36090 C46 49.5357 72.0091 103.619 C 0.0 **** 0.0
36091 C47 49.2005 72.593 104.841 C 0.0 **** 0.0
36092 C48 50.0481 73.6621 105.337 C 0.0 **** 0.0
36093 C49 51.1085 74.1835 104.542 C 0.0 **** 0.0
36094 C50 51.8669 75.3154 104.969 C 0.0 **** 0.0
36095 C51 52.7237 75.946 104.035 C 0.0 **** 0.0
36096 C52 52.8872 75.4372 102.749 C 0.0 **** 0.0
36097 O53 51.7209 63.5648 93.7225 O 0.0 **** 0.0
36098 C54 53.8948 64.7979 92.3556 C 0.0 **** 0.0
36099 O55 50.4518 68.5825 99.0193 O 0.0 **** 0.0
36100 C56 48.0856 71.9944 105.687 C 0.0 **** 0.0
36101 C57 48.6147 70.8411 106.509 C 0.0 **** 0.0
36102 O58 50.3828 78.4138 98.9181 O 0.0 **** 0.0
36103 O59 57.7876 76.4243 97.2902 O 0.0 **** 0.0
36104 O60 51.8286 75.7692 106.283 O 0.0 **** 0.0
36105 H61 50.7554 65.045 95.7604 H 0.0 **** 0.0
36106 H62 54.7031 67.0635 93.5897 H 0.0 **** 0.0
36107 H63 51.4511 66.8651 97.6388 H 0.0 **** 0.0
36108 H64 50.3838 67.8719 96.4281 H 0.0 **** 0.0
36109 H65 55.8288 68.2282 94.9563 H 0.0 **** 0.0
36110 H66 55.4257 69.8163 94.0352 H 0.0 **** 0.0
36111 H67 57.0533 69.4631 96.6473 H 0.0 **** 0.0
36112 H68 57.6588 69.7869 94.9933 H 0.0 **** 0.0
36113 H69 57.514 71.8409 96.4308 H 0.0 **** 0.0
36114 H70 56.4642 71.8694 94.9389 H 0.0 **** 0.0
36115 H71 52.6641 74.3537 97.0996 H 0.0 **** 0.0
36116 H72 56.3798 74.1215 96.1347 H 0.0 **** 0.0
36117 H73 54.8188 80.8314 97.6229 H 0.0 **** 0.0
36118 H74 54.4295 81.257 99.2531 H 0.0 **** 0.0
36119 H75 56.8455 81.0866 98.8746 H 0.0 **** 0.0
36120 H76 56.2867 79.9841 100.193 H 0.0 **** 0.0
36121 H77 57.2134 79.3667 97.3445 H 0.0 **** 0.0
36122 H78 57.7873 78.6262 98.8089 H 0.0 **** 0.0
36123 H79 51.6015 76.2529 98.3028 H 0.0 **** 0.0
36124 H80 52.2111 80.3558 99.2187 H 0.0 **** 0.0
36125 H81 49.3378 70.7407 100.749 H 0.0 **** 0.0
36126 H82 50.6461 69.8672 101.686 H 0.0 **** 0.0
36127 H83 53.5736 73.9361 100.633 H 0.0 **** 0.0
36128 H84 48.9813 71.1273 103.303 H 0.0 **** 0.0
36129 H85 49.8311 74.0195 106.318 H 0.0 **** 0.0
36130 H86 53.1996 76.8328 104.364 H 0.0 **** 0.0
36131 H87 53.5083 75.9802 102.034 H 0.0 **** 0.0
36132 H88 50.8472 63.3241 94.1965 H 0.0 **** 0.0
36133 H89 54.233 63.7448 92.5602 H 0.0 **** 0.0
36134 H90 54.8521 65.3325 92.0292 H 0.0 **** 0.0
36135 H91 53.2184 64.7899 91.489 H 0.0 **** 0.0
36136 H92 49.7471 68.6438 99.6995 H 0.0 **** 0.0
36137 H93 47.6938 72.7563 106.383 H 0.0 **** 0.0
36138 H94 47.7653 70.4182 107.133 H 0.0 **** 0.0
36139 H95 49.3706 71.1823 107.253 H 0.0 **** 0.0
36140 H96 48.9577 70.0354 105.813 H 0.0 **** 0.0
36141 H97 49.891 77.6053 98.599 H 0.0 **** 0.0
36142 H98 58.1187 75.613 96.8186 H 0.0 **** 0.0
36143 H99 51.5009 75.0985 106.951 H 0.0 **** 0.0
36144 H100 52.5368 74.4371 98.8941 H 0.0 **** 0.0
36145 H101 57.0023 73.8032 97.8189 H 0.0 **** 0.0
36146 H102 47.1704 71.6987 105.1 H 0.0 **** 0.0
36147 C1 59.6329 82.5364 65.6661 C 0.0 **** 0.0
36148 C2 58.2746 82.2148 65.8303 C 0.0 **** 0.0
36149 C3 57.8707 80.8845 65.9093 C 0.0 **** 0.0
36150 C4 58.8275 79.8981 65.789 C 0.0 **** 0.0
36151 C5 60.1919 80.1792 65.7443 C 0.0 **** 0.0
36152 C6 60.6139 81.4973 65.684 C 0.0 **** 0.0
36153 C7 58.1467 78.6361 65.9346 C 0.0 **** 0.0
36154 C8 56.8427 78.8977 66.3861 C 0.0 **** 0.0
36155 C9 56.557 80.3511 66.3312 C 0.0 **** 0.0
36156 C10 55.9893 77.8813 66.9127 C 0.0 **** 0.0
36157 C11 56.4628 76.5438 66.8153 C 0.0 **** 0.0
36158 C12 57.7057 76.2747 66.2198 C 0.0 **** 0.0
36159 C13 58.5743 77.3139 65.7959 C 0.0 **** 0.0
36160 C14 59.7914 77.0058 64.9947 C 0.0 **** 0.0
36161 C15 59.6602 75.6429 64.2483 C 0.0 **** 0.0
36162 C16 59.3602 74.4931 65.2151 C 0.0 **** 0.0
36163 C17 58.1548 74.8445 66.1194 C 0.0 **** 0.0
36164 C18 57.5411 73.9144 66.9453 C 0.0 **** 0.0
36165 C19 56.3777 74.2726 67.7042 C 0.0 **** 0.0
36166 C20 55.707 75.4811 67.3823 C 0.0 **** 0.0
36167 C21 54.347 75.759 67.6493 C 0.0 **** 0.0
36168 C22 53.8907 77.0398 67.7882 C 0.0 **** 0.0
36169 C23 54.7306 78.1484 67.5055 C 0.0 **** 0.0
36170 C24 56.0863 73.5438 68.9735 C 0.0 **** 0.0
36171 C25 56.0968 72.0707 68.6721 C 0.0 **** 0.0
36172 C26 57.0039 71.5906 67.7316 C 0.0 **** 0.0
36173 C27 58.0972 72.541 67.1583 C 0.0 **** 0.0
36174 C28 56.9091 70.2778 67.2333 C 0.0 **** 0.0
36175 C29 55.8703 69.4819 67.6761 C 0.0 **** 0.0
36176 C30 55.0324 69.9352 68.7253 C 0.0 **** 0.0
36177 C31 55.1868 71.2032 69.2985 C 0.0 **** 0.0
36178 C32 54.0316 68.9937 69.3047 C 0.0 **** 0.0
36179 C33 53.733 67.6945 68.6342 C 0.0 **** 0.0
36180 C34 54.2417 67.6781 67.192 C 0.0 **** 0.0
36181 C35 55.7018 68.1266 67.0984 C 0.0 **** 0.0
36182 C36 54.4665 71.5518 70.462 C 0.0 **** 0.0
36183 C37 53.5324 70.6646 70.9948 C 0.0 **** 0.0
36184 C38 53.3129 69.4116 70.4369 C 0.0 **** 0.0
36185 C39 52.406 77.1199 68.0 C 0.0 **** 0.0
36186 C40 52.0895 75.6487 67.8785 C 0.0 **** 0.0
36187 C41 53.2727 74.9296 67.668 C 0.0 **** 0.0
36188 C42 53.2323 73.5546 67.349 C 0.0 **** 0.0
36189 C43 52.0109 72.8772 67.5194 C 0.0 **** 0.0
36190 C44 50.8158 73.6219 67.8629 C 0.0 **** 0.0
36191 C45 50.8511 75.0385 67.94 C 0.0 **** 0.0
36192 C46 49.6444 75.7628 68.0816 C 0.0 **** 0.0
36193 C47 48.4126 75.098 68.2422 C 0.0 **** 0.0
36194 C48 48.3793 73.6925 68.2492 C 0.0 **** 0.0
36195 C49 49.5998 72.9337 68.0858 C 0.0 **** 0.0
36196 C50 49.6048 71.4914 68.1329 C 0.0 **** 0.0
36197 C51 50.794 70.8118 67.8692 C 0.0 **** 0.0
36198 C52 51.9569 71.4943 67.4667 C 0.0 **** 0.0
36199 O53 60.0659 83.8737 65.6478 O 0.0 **** 0.0
36200 C54 62.0873 81.794 65.5369 C 0.0 **** 0.0
36201 O55 54.2852 79.4562 67.7295 O 0.0 **** 0.0
36202 C56 47.1198 75.9048 68.3231 C 0.0 **** 0.0
36203 C57 46.9695 76.5408 69.7213 C 0.0 **** 0.0
36204 O58 52.8838 70.9771 72.2083 O 0.0 **** 0.0
36205 O59 57.8252 69.7391 66.3336 O 0.0 **** 0.0
36206 O60 48.5409 70.6852 68.5775 O 0.0 **** 0.0
36207 H61 57.5406 82.9565 65.9512 H 0.0 **** 0.0
36208 H62 60.9616 79.3954 65.6649 H 0.0 **** 0.0
36209 H63 55.8566 80.5576 65.538 H 0.0 **** 0.0
36210 H64 56.2557 80.7493 67.3071 H 0.0 **** 0.0
36211 H65 60.0459 77.7886 64.2718 H 0.0 **** 0.0
36212 H66 60.6298 76.9723 65.7303 H 0.0 **** 0.0
36213 H67 58.9013 75.7847 63.4551 H 0.0 **** 0.0
36214 H68 60.585 75.4167 63.6579 H 0.0 **** 0.0
36215 H69 59.0504 73.6068 64.606 H 0.0 **** 0.0
36216 H70 60.2178 74.2883 65.8156 H 0.0 **** 0.0
36217 H71 56.8785 73.7377 69.7181 H 0.0 **** 0.0
36218 H72 58.8734 72.5751 67.9787 H 0.0 **** 0.0
36219 H73 54.1851 66.8206 69.1649 H 0.0 **** 0.0
36220 H74 52.6164 67.5354 68.5378 H 0.0 **** 0.0
36221 H75 54.096 66.6682 66.7865 H 0.0 **** 0.0
36222 H76 53.5944 68.3263 66.5504 H 0.0 **** 0.0
36223 H77 56.3374 67.4185 67.6781 H 0.0 **** 0.0
36224 H78 55.9869 68.089 66.0208 H 0.0 **** 0.0
36225 H79 54.6157 72.4738 70.9541 H 0.0 **** 0.0
36226 H80 52.528 68.7978 70.8518 H 0.0 **** 0.0
36227 H81 52.0969 77.4834 69.014 H 0.0 **** 0.0
36228 H82 51.9712 77.6569 67.121 H 0.0 **** 0.0
36229 H83 54.1182 73.0008 67.0952 H 0.0 **** 0.0
36230 H84 49.5929 76.8715 68.1081 H 0.0 **** 0.0
36231 H85 47.4208 73.2417 68.3961 H 0.0 **** 0.0
36232 H86 50.759 69.7082 67.9336 H 0.0 **** 0.0
36233 H87 52.8385 70.9321 67.2986 H 0.0 **** 0.0
36234 H88 59.2821 84.4651 65.5133 H 0.0 **** 0.0
36235 H89 62.7593 80.8993 65.6908 H 0.0 **** 0.0
36236 H90 62.3886 82.5687 66.2758 H 0.0 **** 0.0
36237 H91 62.2667 82.077 64.4949 H 0.0 **** 0.0
36238 H92 53.4079 79.5139 68.2435 H 0.0 **** 0.0
36239 H93 47.1198 76.7101 67.5864 H 0.0 **** 0.0
36240 H94 46.0269 77.11 69.8873 H 0.0 **** 0.0
36241 H95 47.7913 77.3039 69.8863 H 0.0 **** 0.0
36242 H96 47.0173 75.7971 70.5433 H 0.0 **** 0.0
36243 H97 52.9327 71.9463 72.4745 H 0.0 **** 0.0
36244 H98 58.7496 70.0251 66.5441 H 0.0 **** 0.0
36245 H99 47.6846 71.0954 68.8269 H 0.0 **** 0.0
36246 H100 55.1134 73.8838 69.4098 H 0.0 **** 0.0
36247 H101 58.5495 72.2 66.2519 H 0.0 **** 0.0
36248 H102 46.2341 75.2829 68.1369 H 0.0 **** 0.0
36249 C1 41.8372 94.1573 77.0541 C 0.0 **** 0.0
36250 C2 42.7204 93.8859 75.9649 C 0.0 **** 0.0
36251 C3 42.849 92.5932 75.4951 C 0.0 **** 0.0
36252 C4 42.0807 91.5761 76.0175 C 0.0 **** 0.0
36253 C5 41.3545 91.7909 77.2225 C 0.0 **** 0.0
36254 C6 41.3505 93.0663 77.7683 C 0.0 **** 0.0
36255 C7 41.9255 90.5191 75.045 C 0.0 **** 0.0
36256 C8 42.8063 90.8327 74.0438 C 0.0 **** 0.0
36257 C9 43.4624 92.194 74.2175 C 0.0 **** 0.0
36258 C10 43.0474 89.9394 72.9724 C 0.0 **** 0.0
36259 C11 42.3263 88.7138 72.894 C 0.0 **** 0.0
36260 C12 41.3889 88.4026 73.937 C 0.0 **** 0.0
36261 C13 41.2534 89.2958 75.0807 C 0.0 **** 0.0
36262 C14 40.5137 88.8848 76.3602 C 0.0 **** 0.0
36263 C15 40.1709 87.3587 76.3582 C 0.0 **** 0.0
36264 C16 39.6408 86.8523 74.9754 C 0.0 **** 0.0
36265 C17 40.5527 87.2124 73.7998 C 0.0 **** 0.0
36266 C18 40.6024 86.5026 72.5682 C 0.0 **** 0.0
36267 C19 41.5513 86.7912 71.5434 C 0.0 **** 0.0
36268 C20 42.4876 87.8359 71.7833 C 0.0 **** 0.0
36269 C21 43.5714 88.155 70.8584 C 0.0 **** 0.0
36270 C22 44.1699 89.404 70.8711 C 0.0 **** 0.0
36271 C23 43.9818 90.3151 71.9462 C 0.0 **** 0.0
36272 C24 41.2962 86.2132 70.1296 C 0.0 **** 0.0
36273 C25 40.8971 84.7588 70.1661 C 0.0 **** 0.0
36274 C26 40.0154 84.3493 71.17 C 0.0 **** 0.0
36275 C27 39.7003 85.2684 72.34 C 0.0 **** 0.0
36276 C28 39.5759 82.9704 71.2027 C 0.0 **** 0.0
36277 C29 40.0756 82.0368 70.2838 C 0.0 **** 0.0
36278 C30 40.932 82.4331 69.2698 C 0.0 **** 0.0
36279 C31 41.2381 83.8031 69.0848 C 0.0 **** 0.0
36280 C32 41.5456 81.3932 68.3617 C 0.0 **** 0.0
36281 C33 41.2176 79.9017 68.5383 C 0.0 **** 0.0
36282 C34 40.7224 79.6184 69.9511 C 0.0 **** 0.0
36283 C35 39.6135 80.5336 70.3755 C 0.0 **** 0.0
36284 C36 42.028 84.2015 68.0236 C 0.0 **** 0.0
36285 C37 42.567 83.2672 67.1452 C 0.0 **** 0.0
36286 C38 42.3485 81.8778 67.2764 C 0.0 **** 0.0
36287 C39 45.3222 89.4944 69.8965 C 0.0 **** 0.0
36288 C40 45.4463 88.1034 69.4316 C 0.0 **** 0.0
36289 C41 44.4132 87.3436 70.016 C 0.0 **** 0.0
36290 C42 44.462 85.9512 69.8668 C 0.0 **** 0.0
36291 C43 45.444 85.3662 69.0244 C 0.0 **** 0.0
36292 C44 46.5179 86.1612 68.5084 C 0.0 **** 0.0
36293 C45 46.5315 87.5397 68.7055 C 0.0 **** 0.0
36294 C46 47.6808 88.2834 68.3494 C 0.0 **** 0.0
36295 C47 48.651 87.6821 67.5794 C 0.0 **** 0.0
36296 C48 48.5249 86.3385 67.1791 C 0.0 **** 0.0
36297 C49 47.5085 85.5328 67.7442 C 0.0 **** 0.0
36298 C50 47.4394 84.1245 67.5305 C 0.0 **** 0.0
36299 C51 46.3509 83.4011 68.0363 C 0.0 **** 0.0
36300 C52 45.3705 84.0122 68.7505 C 0.0 **** 0.0
36301 O53 41.4902 95.4604 77.4313 O 0.0 **** 0.0
36302 C54 40.6844 93.2603 79.0584 C 0.0 **** 0.0
36303 O55 44.8301 91.4169 72.0636 O 0.0 **** 0.0
36304 C56 49.8688 88.4936 67.1326 C 0.0 **** 0.0
36305 C57 49.7301 88.9717 65.7178 C 0.0 **** 0.0
36306 O58 43.3102 83.8013 66.0436 O 0.0 **** 0.0
36307 O59 38.7146 82.4968 72.1795 O 0.0 **** 0.0
36308 O60 48.3423 83.3619 66.7611 O 0.0 **** 0.0
36309 H61 43.2649 94.6508 75.3915 H 0.0 **** 0.0
36310 H62 40.7411 91.0557 77.7216 H 0.0 **** 0.0
36311 H63 44.558 92.1322 74.3392 H 0.0 **** 0.0
36312 H64 43.215 92.9479 73.5054 H 0.0 **** 0.0
36313 H65 41.1965 89.0594 77.2405 H 0.0 **** 0.0
36314 H66 39.5821 89.4971 76.4543 H 0.0 **** 0.0
36315 H67 41.1046 86.7189 76.5584 H 0.0 **** 0.0
36316 H68 39.4731 87.1194 77.1878 H 0.0 **** 0.0
36317 H69 39.5077 85.766 75.0589 H 0.0 **** 0.0
36318 H70 38.6258 87.3349 74.7765 H 0.0 **** 0.0
36319 H71 40.3898 86.7378 69.6751 H 0.0 **** 0.0
36320 H72 38.6448 85.6053 72.1804 H 0.0 **** 0.0
36321 H73 42.0816 79.2588 68.4594 H 0.0 **** 0.0
36322 H74 40.4479 79.6284 67.8038 H 0.0 **** 0.0
36323 H75 40.3517 78.5727 69.9593 H 0.0 **** 0.0
36324 H76 41.5243 79.6435 70.6871 H 0.0 **** 0.0
36325 H77 38.6529 80.4033 69.8686 H 0.0 **** 0.0
36326 H78 39.3713 80.2485 71.4241 H 0.0 **** 0.0
36327 H79 42.2785 85.2134 67.8537 H 0.0 **** 0.0
36328 H80 42.7368 81.1831 66.5273 H 0.0 **** 0.0
36329 H81 45.0542 90.1105 69.0369 H 0.0 **** 0.0
36330 H82 46.2456 89.7621 70.4033 H 0.0 **** 0.0
36331 H83 43.7829 85.2819 70.4315 H 0.0 **** 0.0
36332 H84 47.6947 89.3142 68.5453 H 0.0 **** 0.0
36333 H85 49.3467 85.8621 66.6018 H 0.0 **** 0.0
36334 H86 46.3392 82.3209 67.9506 H 0.0 **** 0.0
36335 H87 44.5313 83.407 69.1135 H 0.0 **** 0.0
36336 H88 41.818 96.156 76.7835 H 0.0 **** 0.0
36337 H89 39.6343 93.5426 78.8692 H 0.0 **** 0.0
36338 H90 41.1809 93.956 79.6996 H 0.0 **** 0.0
36339 H91 40.6246 92.2896 79.5899 H 0.0 **** 0.0
36340 H92 45.3822 91.6687 71.2417 H 0.0 **** 0.0
36341 H93 50.0502 89.4001 67.8046 H 0.0 **** 0.0
36342 H94 49.1494 88.2317 65.1702 H 0.0 **** 0.0
36343 H95 50.7448 89.068 65.2994 H 0.0 **** 0.0
36344 H96 49.2145 89.9389 65.6873 H 0.0 **** 0.0
36345 H97 43.5127 83.0724 65.3519 H 0.0 **** 0.0
36346 H98 37.9192 83.099 72.3748 H 0.0 **** 0.0
36347 H99 48.8583 83.9622 66.1275 H 0.0 **** 0.0
36348 H100 42.1053 86.5349 69.4928 H 0.0 **** 0.0
36349 H101 39.7455 84.6096 73.2562 H 0.0 **** 0.0
36350 H102 50.8237 87.8764 67.1958 H 0.0 **** 0.0
36351 C1 84.3489 21.5979 61.5551 C 0.0 **** 0.0
36352 C2 83.1492 21.2353 62.2227 C 0.0 **** 0.0
36353 C3 82.5761 22.1334 63.1401 C 0.0 **** 0.0
36354 C4 83.1402 23.3682 63.372 C 0.0 **** 0.0
36355 C5 84.2758 23.793 62.6537 C 0.0 **** 0.0
36356 C6 84.8996 22.9141 61.7546 C 0.0 **** 0.0
36357 C7 82.2967 24.099 64.3144 C 0.0 **** 0.0
36358 C8 81.1761 23.3216 64.5558 C 0.0 **** 0.0
36359 C9 81.2955 21.9504 63.8689 C 0.0 **** 0.0
36360 C10 80.1309 23.8564 65.3236 C 0.0 **** 0.0
36361 C11 80.2721 25.1907 65.8559 C 0.0 **** 0.0
36362 C12 81.4231 25.9244 65.6248 C 0.0 **** 0.0
36363 C13 82.4838 25.3877 64.8802 C 0.0 **** 0.0
36364 C14 83.8419 26.0438 64.8901 C 0.0 **** 0.0
36365 C15 83.9923 27.1531 65.9385 C 0.0 **** 0.0
36366 C16 82.8061 28.0951 65.9084 C 0.0 **** 0.0
36367 C17 81.5062 27.3207 66.1391 C 0.0 **** 0.0
36368 C18 80.3093 27.9826 66.491 C 0.0 **** 0.0
36369 C19 79.1586 27.1752 66.7433 C 0.0 **** 0.0
36370 C20 79.1885 25.766 66.5874 C 0.0 **** 0.0
36371 C21 78.1567 24.8968 67.0228 C 0.0 **** 0.0
36372 C22 78.0461 23.6269 66.5105 C 0.0 **** 0.0
36373 C23 78.9721 23.097 65.6052 C 0.0 **** 0.0
36374 C24 77.8248 27.9497 67.0735 C 0.0 **** 0.0
36375 C25 77.7037 29.1691 66.2044 C 0.0 **** 0.0
36376 C26 78.8527 30.029 66.088 C 0.0 **** 0.0
36377 C27 80.2133 29.5118 66.4767 C 0.0 **** 0.0
36378 C28 78.6834 31.3491 65.5853 C 0.0 **** 0.0
36379 C29 77.4408 31.7709 65.0858 C 0.0 **** 0.0
36380 C30 76.3311 30.9257 65.1918 C 0.0 **** 0.0
36381 C31 76.4404 29.5952 65.6618 C 0.0 **** 0.0
36382 C32 74.995 31.4003 64.7745 C 0.0 **** 0.0
36383 C33 74.7769 32.8566 64.4289 C 0.0 **** 0.0
36384 C34 75.9117 33.7427 64.848 C 0.0 **** 0.0
36385 C35 77.2256 33.1041 64.4166 C 0.0 **** 0.0
36386 C36 75.2739 28.7438 65.5601 C 0.0 **** 0.0
36387 C37 73.9837 29.2639 65.2096 C 0.0 **** 0.0
36388 C38 73.8593 30.6338 64.8447 C 0.0 **** 0.0
36389 C39 76.87 22.9204 67.1335 C 0.0 **** 0.0
36390 C40 76.5216 23.9021 68.1987 C 0.0 **** 0.0
36391 C41 77.3526 24.9829 68.159 C 0.0 **** 0.0
36392 C42 77.5848 25.824 69.2383 C 0.0 **** 0.0
36393 C43 76.7523 25.6575 70.3742 C 0.0 **** 0.0
36394 C44 75.7606 24.6422 70.4031 C 0.0 **** 0.0
36395 C45 75.6262 23.7866 69.2754 C 0.0 **** 0.0
36396 C46 74.7551 22.692 69.3027 C 0.0 **** 0.0
36397 C47 74.032 22.4158 70.475 C 0.0 **** 0.0
36398 C48 74.1444 23.2334 71.6189 C 0.0 **** 0.0
36399 C49 75.0459 24.3447 71.6088 C 0.0 **** 0.0
36400 C50 75.3191 25.076 72.7796 C 0.0 **** 0.0
36401 C51 76.3511 26.0591 72.7454 C 0.0 **** 0.0
36402 C52 77.0226 26.3695 71.5583 C 0.0 **** 0.0
36403 O53 84.8685 20.7405 60.5904 O 0.0 **** 0.0
36404 C54 86.1869 23.406 61.0905 C 0.0 **** 0.0
36405 O55 78.8449 21.8196 65.1355 O 0.0 **** 0.0
36406 C56 73.116 21.2165 70.4796 C 0.0 **** 0.0
36407 C57 71.7146 21.5994 70.8513 C 0.0 **** 0.0
36408 O58 72.8116 28.4719 65.2221 O 0.0 **** 0.0
36409 O59 79.7093 32.2701 65.6403 O 0.0 **** 0.0
36410 O60 74.6463 24.7344 73.9416 O 0.0 **** 0.0
36411 H61 82.6194 20.3527 62.045 H 0.0 **** 0.0
36412 H62 84.692 24.7514 62.7602 H 0.0 **** 0.0
36413 H63 81.3184 21.1487 64.6284 H 0.0 **** 0.0
36414 H64 80.4441 21.8007 63.151 H 0.0 **** 0.0
36415 H65 84.6896 25.3454 65.0989 H 0.0 **** 0.0
36416 H66 83.9674 26.4948 63.9309 H 0.0 **** 0.0
36417 H67 84.1149 26.7429 66.9022 H 0.0 **** 0.0
36418 H68 84.9074 27.7066 65.793 H 0.0 **** 0.0
36419 H69 82.9403 28.8729 66.7093 H 0.0 **** 0.0
36420 H70 82.7845 28.6259 64.9613 H 0.0 **** 0.0
36421 H71 76.9405 27.3297 66.9971 H 0.0 **** 0.0
36422 H72 80.9881 29.9036 65.8334 H 0.0 **** 0.0
36423 H73 74.5498 32.9713 63.3749 H 0.0 **** 0.0
36424 H74 73.8913 33.2871 64.9041 H 0.0 **** 0.0
36425 H75 75.7828 34.7208 64.3757 H 0.0 **** 0.0
36426 H76 75.8373 33.9316 65.9086 H 0.0 **** 0.0
36427 H77 77.3756 32.9857 63.3197 H 0.0 **** 0.0
36428 H78 78.01 33.8098 64.7039 H 0.0 **** 0.0
36429 H79 75.3357 27.6632 65.6749 H 0.0 **** 0.0
36430 H80 72.9596 31.0564 64.5542 H 0.0 **** 0.0
36431 H81 76.1221 22.8352 66.34 H 0.0 **** 0.0
36432 H82 77.1591 21.91 67.5306 H 0.0 **** 0.0
36433 H83 78.5061 26.4201 69.2833 H 0.0 **** 0.0
36434 H84 74.6731 22.0333 68.3651 H 0.0 **** 0.0
36435 H85 73.6495 22.986 72.5523 H 0.0 **** 0.0
36436 H86 76.5909 26.6405 73.6083 H 0.0 **** 0.0
36437 H87 77.8644 27.0958 71.5434 H 0.0 **** 0.0
36438 H88 85.6363 21.0417 59.988 H 0.0 **** 0.0
36439 H89 86.0518 23.3361 60.0065 H 0.0 **** 0.0
36440 H90 87.0544 22.7468 61.2628 H 0.0 **** 0.0
36441 H91 86.5222 24.4163 61.4009 H 0.0 **** 0.0
36442 H92 78.0333 21.2829 65.4407 H 0.0 **** 0.0
36443 H93 73.0813 20.7101 69.4664 H 0.0 **** 0.0
36444 H94 71.0365 20.7738 70.5176 H 0.0 **** 0.0
36445 H95 71.4104 22.5436 70.3907 H 0.0 **** 0.0
36446 H96 71.6503 21.726 71.995 H 0.0 **** 0.0
36447 H97 72.9989 27.5547 65.5987 H 0.0 **** 0.0
36448 H98 80.2658 32.2018 66.5381 H 0.0 **** 0.0
36449 H99 74.9367 25.2795 74.7165 H 0.0 **** 0.0
36450 H100 77.8464 28.3184 68.1382 H 0.0 **** 0.0
36451 H101 80.4786 29.9057 67.4748 H 0.0 **** 0.0
36452 H102 73.5225 20.4952 71.2782 H 0.0 **** 0.0
36453 C1 25.0285 80.8423 22.0936 C 0.0 **** 0.0
36454 C2 24.6449 81.235 23.3717 C 0.0 **** 0.0
36455 C3 25.2353 82.3645 23.8726 C 0.0 **** 0.0
36456 C4 26.1579 83.1157 23.1702 C 0.0 **** 0.0
36457 C5 26.5665 82.7096 21.9064 C 0.0 **** 0.0
36458 C6 25.9407 81.5977 21.3316 C 0.0 **** 0.0
36459 C7 26.4096 84.3973 23.9087 C 0.0 **** 0.0
36460 C8 25.5542 84.422 24.9967 C 0.0 **** 0.0
36461 C9 24.8052 83.1313 25.0781 C 0.0 **** 0.0
36462 C10 25.3906 85.6071 25.8297 C 0.0 **** 0.0
36463 C11 26.0989 86.7775 25.4367 C 0.0 **** 0.0
36464 C12 27.1504 86.671 24.4309 C 0.0 **** 0.0
36465 C13 27.3129 85.4626 23.67 C 0.0 **** 0.0
36466 C14 28.4807 85.3536 22.7038 C 0.0 **** 0.0
36467 C15 29.5943 86.3337 23.0838 C 0.0 **** 0.0
36468 C16 29.1028 87.7916 23.1622 C 0.0 **** 0.0
36469 C17 27.9039 87.9102 24.1016 C 0.0 **** 0.0
36470 C18 27.3859 89.1424 24.4946 C 0.0 **** 0.0
36471 C19 26.13 89.2161 25.1825 C 0.0 **** 0.0
36472 C20 25.6932 88.0639 25.8876 C 0.0 **** 0.0
36473 C21 24.8541 88.1297 27.0028 C 0.0 **** 0.0
36474 C22 24.2452 86.9657 27.5031 C 0.0 **** 0.0
36475 C23 24.4571 85.7021 26.8888 C 0.0 **** 0.0
36476 C24 25.307 90.4193 24.8709 C 0.0 **** 0.0
36477 C25 26.0861 91.7245 25.0598 C 0.0 **** 0.0
36478 C26 27.475 91.669 24.8228 C 0.0 **** 0.0
36479 C27 28.1157 90.4304 24.1632 C 0.0 **** 0.0
36480 C28 28.2548 92.887 25.0107 C 0.0 **** 0.0
36481 C29 27.623 94.0647 25.4841 C 0.0 **** 0.0
36482 C30 26.256 94.0445 25.7744 C 0.0 **** 0.0
36483 C31 25.457 92.9217 25.5061 C 0.0 **** 0.0
36484 C32 25.6452 95.2062 26.4219 C 0.0 **** 0.0
36485 C33 26.4327 96.3813 26.9354 C 0.0 **** 0.0
36486 C34 27.9381 96.0234 27.0407 C 0.0 **** 0.0
36487 C35 28.4091 95.3194 25.7784 C 0.0 **** 0.0
36488 C36 24.0505 93.0123 25.6027 C 0.0 **** 0.0
36489 C37 23.4865 94.1862 26.0745 C 0.0 **** 0.0
36490 C38 24.2653 95.2663 26.5061 C 0.0 **** 0.0
36491 C39 23.3406 87.2718 28.6389 C 0.0 **** 0.0
36492 C40 23.5593 88.7323 28.7847 C 0.0 **** 0.0
36493 C41 24.4911 89.1807 27.8393 C 0.0 **** 0.0
36494 C42 25.1011 90.458 28.0105 C 0.0 **** 0.0
36495 C43 24.4752 91.3916 28.812 C 0.0 **** 0.0
36496 C44 23.3757 91.0046 29.6023 C 0.0 **** 0.0
36497 C45 22.9376 89.6357 29.6731 C 0.0 **** 0.0
36498 C46 21.8692 89.2607 30.5184 C 0.0 **** 0.0
36499 C47 21.2343 90.2225 31.3103 C 0.0 **** 0.0
36500 C48 21.6268 91.616 31.2765 C 0.0 **** 0.0
36501 C49 22.6766 92.0225 30.3879 C 0.0 **** 0.0
36502 C50 23.0604 93.4193 30.2047 C 0.0 **** 0.0
36503 C51 24.2169 93.7192 29.4664 C 0.0 **** 0.0
36504 C52 24.9506 92.7239 28.8218 C 0.0 **** 0.0
36505 O53 24.4896 79.7064 21.5441 O 0.0 **** 0.0
36506 C54 26.2822 81.2002 19.952 C 0.0 **** 0.0
36507 O55 23.7142 84.5783 27.3094 O 0.0 **** 0.0
36508 C56 20.1773 89.8227 32.3478 C 0.0 **** 0.0
36509 C57 20.8079 89.3806 33.6856 C 0.0 **** 0.0
36510 O58 22.0888 94.3149 26.0749 O 0.0 **** 0.0
36511 O59 29.6484 92.9276 24.8687 O 0.0 **** 0.0
36512 O60 22.1856 94.4511 30.5523 O 0.0 **** 0.0
36513 H61 23.9373 80.6379 23.938 H 0.0 **** 0.0
36514 H62 27.3046 83.2608 21.3653 H 0.0 **** 0.0
36515 H63 25.0785 82.6033 26.0438 H 0.0 **** 0.0
36516 H64 23.7131 83.3499 25.0427 H 0.0 **** 0.0
36517 H65 28.8782 84.3243 22.8472 H 0.0 **** 0.0
36518 H66 28.1479 85.4189 21.6145 H 0.0 **** 0.0
36519 H67 29.9943 86.0833 24.1206 H 0.0 **** 0.0
36520 H68 30.402 86.2094 22.3867 H 0.0 **** 0.0
36521 H69 29.9573 88.3761 23.543 H 0.0 **** 0.0
36522 H70 28.9261 88.2047 22.1244 H 0.0 **** 0.0
36523 H71 24.9967 90.3771 23.79 H 0.0 **** 0.0
36524 H72 28.1318 90.5609 23.0702 H 0.0 **** 0.0
36525 H73 26.3288 97.2752 26.2452 H 0.0 **** 0.0
36526 H74 26.1493 96.7175 27.9831 H 0.0 **** 0.0
36527 H75 28.4334 96.992 27.1594 H 0.0 **** 0.0
36528 H76 28.1529 95.3601 27.9292 H 0.0 **** 0.0
36529 H77 28.3425 96.0129 24.9344 H 0.0 **** 0.0
36530 H78 29.4847 95.0515 25.8967 H 0.0 **** 0.0
36531 H79 23.4227 92.2104 25.2946 H 0.0 **** 0.0
36532 H80 23.7802 96.085 27.0043 H 0.0 **** 0.0
36533 H81 22.303 87.066 28.3826 H 0.0 **** 0.0
36534 H82 23.6343 86.7754 29.56 H 0.0 **** 0.0
36535 H83 26.0298 90.7373 27.5384 H 0.0 **** 0.0
36536 H84 21.5203 88.2523 30.5638 H 0.0 **** 0.0
36537 H85 21.1826 92.3146 32.0001 H 0.0 **** 0.0
36538 H86 24.5137 94.7526 29.3967 H 0.0 **** 0.0
36539 H87 25.8796 92.9966 28.3424 H 0.0 **** 0.0
36540 H88 23.7587 79.2053 22.0856 H 0.0 **** 0.0
36541 H89 26.5722 80.1028 19.9473 H 0.0 **** 0.0
36542 H90 27.0655 81.8255 19.5013 H 0.0 **** 0.0
36543 H91 25.4348 81.3557 19.284 H 0.0 **** 0.0
36544 H92 23.0217 84.7203 28.0351 H 0.0 **** 0.0
36545 H93 19.5749 90.7405 32.5704 H 0.0 **** 0.0
36546 H94 20.0028 89.2612 34.4745 H 0.0 **** 0.0
36547 H95 21.5256 90.1235 34.057 H 0.0 **** 0.0
36548 H96 21.3626 88.4449 33.5321 H 0.0 **** 0.0
36549 H97 21.5802 93.5148 25.7165 H 0.0 **** 0.0
36550 H98 30.0932 92.062 24.601 H 0.0 **** 0.0
36551 H99 21.183 94.1236 30.5947 H 0.0 **** 0.0
36552 H100 24.39 90.3816 25.4498 H 0.0 **** 0.0
36553 H101 29.1316 90.3065 24.5619 H 0.0 **** 0.0
36554 H102 19.5278 89.0378 31.9347 H 0.0 **** 0.0
36555 C1 42.892 82.9772 -2.59031 C 0.0 **** 0.0
36556 C2 43.5344 83.8372 -1.70981 C 0.0 **** 0.0
36557 C3 44.687 83.4023 -0.981927 C 0.0 **** 0.0
36558 C4 45.2098 82.1448 -1.19519 C 0.0 **** 0.0
36559 C5 44.6244 81.2991 -2.15369 C 0.0 **** 0.0
36560 C6 43.4326 81.7059 -2.80212 C 0.0 **** 0.0
36561 C7 46.4089 82.027 -0.339558 C 0.0 **** 0.0
36562 C8 46.5487 83.2132 0.400006 C 0.0 **** 0.0
36563 C9 45.4522 84.1843 0.0409911 C 0.0 **** 0.0
36564 C10 47.6679 83.4791 1.20066 C 0.0 **** 0.0
36565 C11 48.6731 82.4797 1.30908 C 0.0 **** 0.0
36566 C12 48.5036 81.2509 0.565916 C 0.0 **** 0.0
36567 C13 47.3638 81.0107 -0.211324 C 0.0 **** 0.0
36568 C14 47.076 79.5706 -0.748052 C 0.0 **** 0.0
36569 C15 47.7867 78.5214 0.0798688 C 0.0 **** 0.0
36570 C16 49.2958 78.8049 0.206571 C 0.0 **** 0.0
36571 C17 49.557 80.2618 0.616043 C 0.0 **** 0.0
36572 C18 50.8409 80.706 1.00612 C 0.0 **** 0.0
36573 C19 51.0597 82.0293 1.5133 C 0.0 **** 0.0
36574 C20 49.9506 82.8284 1.88303 C 0.0 **** 0.0
36575 C21 50.0522 84.0708 2.58807 C 0.0 **** 0.0
36576 C22 49.0058 84.9549 2.61703 C 0.0 **** 0.0
36577 C23 47.7992 84.6518 1.94432 C 0.0 **** 0.0
36578 C24 52.4458 82.5597 1.21555 C 0.0 **** 0.0
36579 C25 53.5761 81.6354 1.70894 C 0.0 **** 0.0
36580 C26 53.2931 80.2478 1.661 C 0.0 **** 0.0
36581 C27 51.9986 79.7465 1.02254 C 0.0 **** 0.0
36582 C28 54.254 79.292 2.05243 C 0.0 **** 0.0
36583 C29 55.5127 79.683 2.47844 C 0.0 **** 0.0
36584 C30 55.8776 81.0558 2.37389 C 0.0 **** 0.0
36585 C31 54.9255 82.0211 1.99543 C 0.0 **** 0.0
36586 C32 57.3207 81.4106 2.52409 C 0.0 **** 0.0
36587 C33 58.3472 80.3691 2.93817 C 0.0 **** 0.0
36588 C34 57.6433 79.2615 3.73359 C 0.0 **** 0.0
36589 C35 56.4871 78.6407 2.966 C 0.0 **** 0.0
36590 C36 55.3962 83.3508 1.85482 C 0.0 **** 0.0
36591 C37 56.7774 83.7027 1.99183 C 0.0 **** 0.0
36592 C38 57.7231 82.7553 2.34962 C 0.0 **** 0.0
36593 C39 49.3492 86.2208 3.40648 C 0.0 **** 0.0
36594 C40 50.7161 85.8444 3.87334 C 0.0 **** 0.0
36595 C41 50.9791 84.5354 3.48631 C 0.0 **** 0.0
36596 C42 52.0663 83.8762 4.04585 C 0.0 **** 0.0
36597 C43 52.9292 84.5739 4.93612 C 0.0 **** 0.0
36598 C44 52.654 85.9111 5.24415 C 0.0 **** 0.0
36599 C45 51.5295 86.5909 4.7001 C 0.0 **** 0.0
36600 C46 51.2529 87.8973 5.02537 C 0.0 **** 0.0
36601 C47 52.046 88.6047 5.9571 C 0.0 **** 0.0
36602 C48 53.2216 87.9945 6.40732 C 0.0 **** 0.0
36603 C49 53.562 86.6742 6.0718 C 0.0 **** 0.0
36604 C50 54.6954 86.0837 6.57136 C 0.0 **** 0.0
36605 C51 54.891 84.7021 6.39952 C 0.0 **** 0.0
36606 C52 54.0749 83.9818 5.53597 C 0.0 **** 0.0
36607 O53 41.6881 83.3779 -3.18196 O 0.0 **** 0.0
36608 C54 42.6919 80.7464 -3.71668 C 0.0 **** 0.0
36609 O55 46.693 85.5116 2.05493 O 0.0 **** 0.0
36610 C56 51.7017 90.0238 6.48972 C 0.0 **** 0.0
36611 C57 52.6141 91.0368 5.89136 C 0.0 **** 0.0
36612 O58 57.2618 85.0161 1.83149 O 0.0 **** 0.0
36613 O59 54.0187 77.925 1.91878 O 0.0 **** 0.0
36614 O60 55.6453 86.8798 7.21418 O 0.0 **** 0.0
36615 H61 43.2204 84.8568 -1.55351 H 0.0 **** 0.0
36616 H62 45.0345 80.3592 -2.37388 H 0.0 **** 0.0
36617 H63 44.7165 84.4209 0.862418 H 0.0 **** 0.0
36618 H64 45.8463 85.074 -0.472674 H 0.0 **** 0.0
36619 H65 45.9826 79.386 -0.617248 H 0.0 **** 0.0
36620 H66 47.3673 79.4894 -1.78548 H 0.0 **** 0.0
36621 H67 47.3162 78.4411 1.07944 H 0.0 **** 0.0
36622 H68 47.5653 77.5613 -0.391028 H 0.0 **** 0.0
36623 H69 49.688 78.1417 0.95011 H 0.0 **** 0.0
36624 H70 49.8326 78.6238 -0.779505 H 0.0 **** 0.0
36625 H71 52.5186 82.5433 0.142156 H 0.0 **** 0.0
36626 H72 52.1604 79.3321 -0.0123021 H 0.0 **** 0.0
36627 H73 58.8174 79.9292 2.03296 H 0.0 **** 0.0
36628 H74 59.1451 80.8469 3.53042 H 0.0 **** 0.0
36629 H75 58.3547 78.4249 3.95955 H 0.0 **** 0.0
36630 H76 57.2741 79.7017 4.68557 H 0.0 **** 0.0
36631 H77 56.8645 78.1351 2.04942 H 0.0 **** 0.0
36632 H78 55.9822 77.927 3.65624 H 0.0 **** 0.0
36633 H79 54.7466 84.1012 1.58125 H 0.0 **** 0.0
36634 H80 58.73 83.0144 2.52865 H 0.0 **** 0.0
36635 H81 49.3178 87.1833 2.80364 H 0.0 **** 0.0
36636 H82 48.6015 86.2929 4.26357 H 0.0 **** 0.0
36637 H83 52.2753 82.829 3.83353 H 0.0 **** 0.0
36638 H84 50.3659 88.4515 4.66724 H 0.0 **** 0.0
36639 H85 53.9314 88.5795 7.08542 H 0.0 **** 0.0
36640 H86 55.7173 84.223 6.83131 H 0.0 **** 0.0
36641 H87 54.3283 82.9538 5.35549 H 0.0 **** 0.0
36642 H88 41.5676 84.3615 -3.12042 H 0.0 **** 0.0
36643 H89 41.6684 80.527 -3.27639 H 0.0 **** 0.0
36644 H90 43.2657 79.8217 -3.88873 H 0.0 **** 0.0
36645 H91 42.5068 81.1428 -4.71428 H 0.0 **** 0.0
36646 H92 46.8706 86.3724 2.59069 H 0.0 **** 0.0
36647 H93 50.6563 90.3046 6.21216 H 0.0 **** 0.0
36648 H94 52.4291 92.0484 6.33718 H 0.0 **** 0.0
36649 H95 52.4715 91.0424 4.79989 H 0.0 **** 0.0
36650 H96 53.6299 90.8065 6.14778 H 0.0 **** 0.0
36651 H97 56.5649 85.6896 1.559 H 0.0 **** 0.0
36652 H98 53.0979 77.5324 1.78948 H 0.0 **** 0.0
36653 H99 56.3863 86.3795 7.69009 H 0.0 **** 0.0
36654 H100 52.5889 83.6627 1.38806 H 0.0 **** 0.0
36655 H101 51.6249 78.971 1.66725 H 0.0 **** 0.0
36656 H102 51.8335 90.0794 7.60936 H 0.0 **** 0.0
36657 C 102.53 -0.203724 34.8921 C 0.0 **** 0.0
36658 C 101.815 -1.56111 34.8618 C 0.0 **** 0.0
36659 C 101.383 -1.96429 33.4536 C 0.0 **** 0.0
36660 C 100.773 -0.739341 32.7222 C 0.0 **** 0.0
36661 C 101.73 0.463195 32.8631 C 0.0 **** 0.0
36662 O 102.911 0.133933 33.6033 O 0.0 **** 0.0
36663 C 99.3632 -0.3809 33.2324 C 0.0 **** 0.0
36664 C 98.4711 -1.58262 33.6928 C 0.0 **** 0.0
36665 C 98.9128 -2.89498 33.0572 C 0.0 **** 0.0
36666 C 100.369 -3.20263 33.4433 C 0.0 **** 0.0
36667 O 97.0918 -1.41771 33.4213 O 0.0 **** 0.0
36668 C 96.6138 -0.0977913 33.7871 C 0.0 **** 0.0
36669 C 97.2354 0.992277 32.8311 C 0.0 **** 0.0
36670 C 98.5596 0.46113 32.2025 C 0.0 **** 0.0
36671 C 97.4162 2.34508 33.3999 C 0.0 **** 0.0
36672 C 96.588 2.68578 34.5698 C 0.0 **** 0.0
36673 C 96.596 1.6609 35.7348 C 0.0 **** 0.0
36674 C 96.7226 0.14226 35.3645 C 0.0 **** 0.0
36675 C 95.572 2.10426 36.8156 C 0.0 **** 0.0
36676 C 95.1448 3.61096 36.8714 C 0.0 **** 0.0
36677 C 96.3124 4.48846 36.4551 C 0.0 **** 0.0
36678 C 96.7159 4.17487 35.0185 C 0.0 **** 0.0
36679 C 97.9504 4.92635 34.5373 C 0.0 **** 0.0
36680 C 98.0422 4.77759 33.0145 C 0.0 **** 0.0
36681 C 98.0544 3.34552 32.6139 C 0.0 **** 0.0
36682 O 96.0632 5.8868 36.5502 O 0.0 **** 0.0
36683 C 94.7055 6.35862 36.2725 C 0.0 **** 0.0
36684 C 93.9558 5.39212 35.4056 C 0.0 **** 0.0
36685 C 93.8433 4.04679 36.083 C 0.0 **** 0.0
36686 C 95.6909 -0.716731 36.156 C 0.0 **** 0.0
36687 C 94.6246 -0.155293 37.0876 C 0.0 **** 0.0
36688 C 94.318 1.29366 36.7886 C 0.0 **** 0.0
36689 C 93.4397 -1.04599 37.2552 C 0.0 **** 0.0
36690 C 93.508 -2.33362 36.8318 C 0.0 **** 0.0
36691 C 94.8441 -2.99703 36.6056 C 0.0 **** 0.0
36692 C 95.8336 -2.03468 36.1176 C 0.0 **** 0.0
36693 C 92.3664 -3.25548 36.8531 C 0.0 **** 0.0
36694 C 91.0252 -2.5883 36.7682 C 0.0 **** 0.0
36695 C 90.9701 -1.28228 37.5198 C 0.0 **** 0.0
36696 C 92.1096 -0.539249 37.7584 C 0.0 **** 0.0
36697 C 92.0086 0.685436 38.6695 C 0.0 **** 0.0
36698 C 90.6478 0.965033 39.295 C 0.0 **** 0.0
36699 C 89.6164 0.776867 38.2328 C 0.0 **** 0.0
36700 C 89.5424 -0.644956 37.6995 C 0.0 **** 0.0
36701 C 93.3372 2.9932 35.0459 C 0.0 **** 0.0
36702 C 93.467 1.53919 35.5261 C 0.0 **** 0.0
36703 C 92.5533 5.89014 35.0531 C 0.0 **** 0.0
36704 C 91.8676 4.93978 34.0539 C 0.0 **** 0.0
36705 S 91.5636 3.32561 34.7941 S 0.0 **** 0.0
36706 C 90.6253 5.52069 33.3604 C 0.0 **** 0.0
36707 C 90.0221 6.69884 34.1003 C 0.0 **** 0.0
36708 C 91.1081 7.83661 34.054 C 0.0 **** 0.0
36709 C 92.5275 7.37578 34.5613 C 0.0 **** 0.0
36710 C 90.4986 9.029 34.7545 C 0.0 **** 0.0
36711 C 89.265 9.506 33.9629 C 0.0 **** 0.0
36712 C 88.1586 8.39495 33.9772 C 0.0 **** 0.0
36713 C 88.7328 7.12094 33.3919 C 0.0 **** 0.0
36714 C 86.9109 8.94436 33.203 C 0.0 **** 0.0
36715 C 86.3235 10.1934 33.8225 C 0.0 **** 0.0
36716 C 87.4059 11.2255 33.9934 C 0.0 **** 0.0
36717 C 88.7136 10.754 34.6555 C 0.0 **** 0.0
36718 C 93.2354 8.35538 35.5473 C 0.0 **** 0.0
36719 C 94.6771 7.77778 35.6582 C 0.0 **** 0.0
36720 C 91.5435 10.1367 35.0748 C 0.0 **** 0.0
36721 C 93.0716 9.76099 34.9987 C 0.0 **** 0.0
36722 C 89.7456 11.9154 34.7079 C 0.0 **** 0.0
36723 C 91.2124 11.5084 34.4349 C 0.0 **** 0.0
36724 C 87.0304 12.5384 34.7083 C 0.0 **** 0.0
36725 C 87.8923 13.7421 34.3264 C 0.0 **** 0.0
36726 C 89.3769 13.2623 34.0413 C 0.0 **** 0.0
36727 O 85.391 10.736 32.8782 O 0.0 **** 0.0
36728 C 84.1867 10.0542 33.0411 C 0.0 **** 0.0
36729 C 84.4111 8.46712 33.0046 C 0.0 **** 0.0
36730 C 85.8123 8.12259 32.4677 C 0.0 **** 0.0
36731 C 83.2725 7.76176 32.2129 C 0.0 **** 0.0
36732 C 81.9229 8.42178 32.5511 C 0.0 **** 0.0
36733 C 81.7737 9.85949 31.9778 C 0.0 **** 0.0
36734 C 83.1609 10.5862 32.0185 C 0.0 **** 0.0
36735 C 83.0031 12.1146 32.2154 C 0.0 **** 0.0
36736 C 81.7466 12.6001 31.4626 C 0.0 **** 0.0
36737 C 80.4728 11.9302 32.0525 C 0.0 **** 0.0
36738 N 80.713 10.602 32.675 N 0.0 **** 0.0
36739 C 93.9233 10.8879 35.6888 C 0.0 **** 0.0
36740 C 93.5604 12.2522 35.1453 C 0.0 **** 0.0
36741 C 92.0571 12.6037 35.1142 C 0.0 **** 0.0
36742 O 94.2155 13.1911 35.9293 O 0.0 **** 0.0
36743 C 95.5549 13.163 35.4933 C 0.0 **** 0.0
36744 C 96.1917 11.7065 35.5771 C 0.0 **** 0.0
36745 O 95.2822 10.6136 35.4482 O 0.0 **** 0.0
36746 C 97.1526 11.463 36.714 C 0.0 **** 0.0
36747 C 98.2655 12.5633 36.8208 C 0.0 **** 0.0
36748 C 97.8908 13.8752 36.1477 C 0.0 **** 0.0
36749 C 96.4026 14.1518 36.3179 C 0.0 **** 0.0
36750 C 90.4065 14.3995 34.2891 C 0.0 **** 0.0
36751 C 91.8601 13.8897 34.2825 C 0.0 **** 0.0
36752 C 87.7789 14.7755 35.4643 C 0.0 **** 0.0
36753 C 88.6947 15.9739 35.2447 C 0.0 **** 0.0
36754 C 90.1293 15.392 35.4094 C 0.0 **** 0.0
36755 C 86.3785 15.1846 35.765 C 0.0 **** 0.0
36756 C 85.5255 13.9656 36.2255 C 0.0 **** 0.0
36757 C 85.5498 12.8954 35.0889 C 0.0 **** 0.0
36758 O 88.5174 17.0115 36.1872 O 0.0 **** 0.0
36759 C 87.1884 17.4378 36.0607 C 0.0 **** 0.0
36760 C 86.3145 16.3673 36.7319 C 0.0 **** 0.0
36761 C 84.113 14.2948 36.8069 C 0.0 **** 0.0
36762 C 83.7493 15.8118 36.9007 C 0.0 **** 0.0
36763 C 84.9147 16.8184 36.7688 C 0.0 **** 0.0
36764 C 82.8621 16.2261 38.1291 C 0.0 **** 0.0
36765 C 81.8961 15.0886 38.4359 C 0.0 **** 0.0
36766 C 82.5208 13.7034 38.6218 C 0.0 **** 0.0
36767 C 83.9785 13.6552 38.1972 C 0.0 **** 0.0
36768 C 84.6124 18.2438 37.2752 C 0.0 **** 0.0
36769 C 85.5292 19.222 36.485 C 0.0 **** 0.0
36770 C 87.0428 18.8613 36.6085 C 0.0 **** 0.0
36771 C 82.2173 17.6396 37.9694 C 0.0 **** 0.0
36772 C 83.0905 18.5806 37.0816 C 0.0 **** 0.0
36773 C 90.506 2.38287 39.9876 C 0.0 **** 0.0
36774 C 89.0898 2.61868 40.581 C 0.0 **** 0.0
36775 C 91.5581 2.56322 41.1019 C 0.0 **** 0.0
36776 O 85.9982 6.72948 32.6137 O 0.0 **** 0.0
36777 C 87.8675 19.872 35.7807 C 0.0 **** 0.0
36778 C 87.5166 19.8081 34.2821 C 0.0 **** 0.0
36779 C 86.0182 19.9937 33.9989 C 0.0 **** 0.0
36780 C 85.1095 19.2468 34.9981 C 0.0 **** 0.0
36781 C 83.6477 19.6073 34.862 C 0.0 **** 0.0
36782 C 83.3293 19.6563 33.3368 C 0.0 **** 0.0
36783 C 84.2818 18.9138 32.3747 C 0.0 **** 0.0
36784 C 85.7332 19.4599 32.5927 C 0.0 **** 0.0
36785 C 83.9164 19.1857 30.9554 C 0.0 **** 0.0
36786 C 82.4408 18.8231 30.7289 C 0.0 **** 0.0
36787 C 81.5561 19.7529 31.5236 C 0.0 **** 0.0
36788 C 81.8553 19.6085 33.0347 C 0.0 **** 0.0
36789 C 81.1437 18.3926 33.6772 C 0.0 **** 0.0
36790 C 81.3212 18.5083 35.197 C 0.0 **** 0.0
36791 C 82.8449 18.504 35.5535 C 0.0 **** 0.0
36792 C 79.6534 18.3217 33.3421 C 0.0 **** 0.0
36793 C 79.544 18.2948 31.8325 C 0.0 **** 0.0
36794 C 80.0593 19.6032 31.2084 C 0.0 **** 0.0
36795 C 80.7702 17.662 37.4232 C 0.0 **** 0.0
36796 C 80.6887 17.3184 35.9543 C 0.0 **** 0.0
36797 C 79.0117 17.0757 33.9912 C 0.0 **** 0.0
36798 C 79.2568 16.919 35.4789 C 0.0 **** 0.0
36799 C 78.8916 15.5107 35.8258 C 0.0 **** 0.0
36800 C 77.6911 14.8985 35.0164 C 0.0 **** 0.0
36801 C 76.6871 15.9736 34.5686 C 0.0 **** 0.0
36802 C 77.5081 17.1174 33.925 C 0.0 **** 0.0
36803 O 76.9157 18.1039 33.5817 O 0.0 **** 0.0
36804 H 103.382 -0.31051 35.5724 H 0.0 **** 0.0
36805 H 101.892 0.595416 35.3155 H 0.0 **** 0.0
36806 H 102.451 -2.36348 35.27 H 0.0 **** 0.0
36807 H 100.985 -1.46963 35.5421 H 0.0 **** 0.0
36808 H 102.239 -2.30646 32.9212 H 0.0 **** 0.0
36809 H 100.614 -0.975778 31.6238 H 0.0 **** 0.0
36810 H 101.256 1.39482 33.2417 H 0.0 **** 0.0
36811 H 102.014 0.763669 31.8202 H 0.0 **** 0.0
36812 H 99.4888 0.16599 34.1913 H 0.0 **** 0.0
36813 H 98.6281 -1.72002 34.7686 H 0.0 **** 0.0
36814 H 98.7727 -2.90571 31.9461 H 0.0 **** 0.0
36815 H 98.2004 -3.6639 33.442 H 0.0 **** 0.0
36816 H 100.792 -4.01006 32.786 H 0.0 **** 0.0
36817 H 100.4 -3.72036 34.4211 H 0.0 **** 0.0
36818 H 95.5294 -0.165152 33.5527 H 0.0 **** 0.0
36819 H 96.5541 1.07306 31.9772 H 0.0 **** 0.0
36820 H 99.2 1.25366 31.7763 H 0.0 **** 0.0
36821 H 98.3394 -0.143345 31.3275 H 0.0 **** 0.0
36822 H 97.752 -0.0754236 35.7379 H 0.0 **** 0.0
36823 H 97.7683 6.02961 34.712 H 0.0 **** 0.0
36824 H 98.8255 4.60859 35.0703 H 0.0 **** 0.0
36825 H 98.9839 5.1917 32.6964 H 0.0 **** 0.0
36826 H 97.2634 5.23697 32.3836 H 0.0 **** 0.0
36827 H 98.3223 3.12806 31.5842 H 0.0 **** 0.0
36828 H 95.1244 -0.12358 38.0377 H 0.0 **** 0.0
36829 H 94.7234 -3.79383 35.8162 H 0.0 **** 0.0
36830 H 95.2092 -3.46408 37.5356 H 0.0 **** 0.0
36831 H 96.7136 -2.472 35.6644 H 0.0 **** 0.0
36832 H 92.355 -3.98614 35.9902 H 0.0 **** 0.0
36833 H 92.5276 -3.86278 37.7393 H 0.0 **** 0.0
36834 H 90.7908 -2.32941 35.7159 H 0.0 **** 0.0
36835 H 90.2438 -3.30098 37.0834 H 0.0 **** 0.0
36836 H 92.7302 0.586838 39.5528 H 0.0 **** 0.0
36837 H 92.2645 1.60443 38.0707 H 0.0 **** 0.0
36838 H 90.4092 0.249595 40.072 H 0.0 **** 0.0
36839 H 89.8046 1.46905 37.4095 H 0.0 **** 0.0
36840 H 88.5865 0.98734 38.6394 H 0.0 **** 0.0
36841 H 89.061 -0.686348 36.6932 H 0.0 **** 0.0
36842 H 88.9014 -1.27215 38.3679 H 0.0 **** 0.0
36843 H 93.8672 0.923169 34.7187 H 0.0 **** 0.0
36844 H 90.9119 5.79333 32.2872 H 0.0 **** 0.0
36845 H 88.0504 6.29358 33.7293 H 0.0 **** 0.0
36846 H 95.2622 8.50274 36.2372 H 0.0 **** 0.0
36847 H 83.8414 10.2444 34.0927 H 0.0 **** 0.0
36848 H 84.3713 8.13967 34.0744 H 0.0 **** 0.0
36849 H 85.8431 8.42779 31.3935 H 0.0 **** 0.0
36850 H 83.4754 7.79419 31.124 H 0.0 **** 0.0
36851 H 83.1645 6.69389 32.5259 H 0.0 **** 0.0
36852 H 81.7426 8.38657 33.666 H 0.0 **** 0.0
36853 H 81.1232 7.77806 32.1432 H 0.0 **** 0.0
36854 H 81.4062 9.73693 30.933 H 0.0 **** 0.0
36855 H 83.6578 10.4102 31.0564 H 0.0 **** 0.0
36856 H 82.8815 12.3169 33.2807 H 0.0 **** 0.0
36857 H 83.9238 12.6311 31.8589 H 0.0 **** 0.0
36858 H 81.8836 12.3806 30.3718 H 0.0 **** 0.0
36859 H 81.7068 13.7109 31.5682 H 0.0 **** 0.0
36860 H 79.7168 11.8325 31.2318 H 0.0 **** 0.0
36861 H 80.014 12.6106 32.8455 H 0.0 **** 0.0
36862 H 81.0021 10.7208 33.6469 H 0.0 **** 0.0
36863 H 95.5823 13.4465 34.4089 H 0.0 **** 0.0
36864 H 96.8213 11.6685 34.6398 H 0.0 **** 0.0
36865 H 96.5875 11.4393 37.6373 H 0.0 **** 0.0
36866 H 97.6266 10.482 36.5386 H 0.0 **** 0.0
36867 H 99.2539 12.2121 36.3763 H 0.0 **** 0.0
36868 H 98.4992 12.7719 37.8884 H 0.0 **** 0.0
36869 H 98.1236 13.7838 35.1142 H 0.0 **** 0.0
36870 H 98.4632 14.6715 36.6553 H 0.0 **** 0.0
36871 H 96.1732 15.1845 35.9177 H 0.0 **** 0.0
36872 H 96.143 14.118 37.3825 H 0.0 **** 0.0
36873 H 92.2948 13.9101 33.2422 H 0.0 **** 0.0
36874 H 90.2218 14.847 36.4219 H 0.0 **** 0.0
36875 H 84.9677 12.0222 35.4104 H 0.0 **** 0.0
36876 H 83.4089 13.7829 36.1228 H 0.0 **** 0.0
36877 H 83.1171 16.0277 36.0049 H 0.0 **** 0.0
36878 H 83.5566 16.3168 38.9892 H 0.0 **** 0.0
36879 H 81.2235 14.9926 37.5604 H 0.0 **** 0.0
36880 H 81.2677 15.2896 39.3246 H 0.0 **** 0.0
36881 H 81.9405 12.9277 38.13 H 0.0 **** 0.0
36882 H 82.5346 13.4689 39.7435 H 0.0 **** 0.0
36883 H 84.3022 12.5877 38.1638 H 0.0 **** 0.0
36884 H 84.5678 14.1793 38.9941 H 0.0 **** 0.0
36885 H 90.6854 3.21502 39.2541 H 0.0 **** 0.0
36886 H 88.9579 3.59211 41.1478 H 0.0 **** 0.0
36887 H 88.7912 1.77396 41.2322 H 0.0 **** 0.0
36888 H 88.3459 2.73533 39.7407 H 0.0 **** 0.0
36889 H 92.5733 2.37791 40.7171 H 0.0 **** 0.0
36890 H 91.2697 1.84198 41.8966 H 0.0 **** 0.0
36891 H 91.4509 3.56846 41.5694 H 0.0 **** 0.0
36892 H 85.7956 6.31959 31.7246 H 0.0 **** 0.0
36893 H 88.9357 19.7059 35.9699 H 0.0 **** 0.0
36894 H 88.1129 20.5263 33.6992 H 0.0 **** 0.0
36895 H 86.3972 18.6253 32.347 H 0.0 **** 0.0
36896 H 84.0214 20.2686 30.7685 H 0.0 **** 0.0
36897 H 82.2764 17.7892 31.066 H 0.0 **** 0.0
36898 H 78.4895 18.1398 31.4935 H 0.0 **** 0.0
36899 H 79.8524 19.4869 30.1103 H 0.0 **** 0.0
36900 H 80.0692 17.0011 38.0441 H 0.0 **** 0.0
36901 H 79.7399 14.7766 35.6948 H 0.0 **** 0.0
36902 H 78.5801 15.5235 36.8872 H 0.0 **** 0.0
36903 H 77.2219 14.2039 35.6806 H 0.0 **** 0.0
36904 H 78.0965 14.3357 34.1657 H 0.0 **** 0.0
36905 H 76.1988 16.3209 35.4978 H 0.0 **** 0.0
36906 H 75.9693 15.5367 33.8229 H 0.0 **** 0.0
36907 C 61.6042 79.5369 69.4228 C 0.0 **** 0.0
36908 C 60.5263 78.485 69.7283 C 0.0 **** 0.0
36909 C 59.1143 79.1276 69.7388 C 0.0 **** 0.0
36910 C 59.2089 80.6028 70.2752 C 0.0 **** 0.0
36911 C 60.2318 81.3954 69.4258 C 0.0 **** 0.0
36912 O 60.9957 80.505 68.6167 O 0.0 **** 0.0
36913 C 59.5298 80.7215 71.7698 C 0.0 **** 0.0
36914 C 58.8894 79.5356 72.5885 C 0.0 **** 0.0
36915 C 57.6766 78.9509 71.8982 C 0.0 **** 0.0
36916 C 58.076 78.3121 70.5491 C 0.0 **** 0.0
36917 O 58.5662 79.8639 73.9237 O 0.0 **** 0.0
36918 C 59.4287 80.796 74.5484 C 0.0 **** 0.0
36919 C 59.485 82.1571 73.8435 C 0.0 **** 0.0
36920 C 59.0704 82.0565 72.3952 C 0.0 **** 0.0
36921 C 60.7507 82.9649 74.045 C 0.0 **** 0.0
36922 C 62.0372 82.3192 74.2578 C 0.0 **** 0.0
36923 C 61.9111 81.1731 75.2495 C 0.0 **** 0.0
36924 C 60.8411 80.1575 74.8509 C 0.0 **** 0.0
36925 C 63.3106 80.4589 75.4409 C 0.0 **** 0.0
36926 C 64.3716 81.4821 75.8881 C 0.0 **** 0.0
36927 C 64.4941 82.6861 74.9503 C 0.0 **** 0.0
36928 C 63.1066 83.3367 74.7551 C 0.0 **** 0.0
36929 C 63.2075 84.5097 73.7612 C 0.0 **** 0.0
36930 C 61.8837 85.2398 73.6099 C 0.0 **** 0.0
36931 C 60.6935 84.3562 73.8081 C 0.0 **** 0.0
36932 O 65.4903 83.601 75.3666 O 0.0 **** 0.0
36933 C 65.3032 84.0008 76.6989 C 0.0 **** 0.0
36934 C 65.4318 82.8152 77.6572 C 0.0 **** 0.0
36935 C 64.2023 81.8973 77.3663 C 0.0 **** 0.0
36936 C 60.9031 79.0065 75.8483 C 0.0 **** 0.0
36937 C 62.2273 78.2723 75.9033 C 0.0 **** 0.0
36938 C 63.2856 79.2764 76.3974 C 0.0 **** 0.0
36939 C 62.1875 77.0401 76.7033 C 0.0 **** 0.0
36940 C 61.2036 76.7809 77.5771 C 0.0 **** 0.0
36941 C 59.9975 77.705 77.7268 C 0.0 **** 0.0
36942 C 59.9439 78.7983 76.7425 C 0.0 **** 0.0
36943 C 61.4373 75.7219 78.6606 C 0.0 **** 0.0
36944 C 62.9265 75.5148 78.9954 C 0.0 **** 0.0
36945 C 63.7511 75.4114 77.7156 C 0.0 **** 0.0
36946 C 63.381 76.0939 76.6305 C 0.0 **** 0.0
36947 C 64.146 75.9818 75.3011 C 0.0 **** 0.0
36948 C 64.978 74.7001 75.2687 C 0.0 **** 0.0
36949 C 65.8458 74.6389 76.5234 C 0.0 **** 0.0
36950 C 64.9813 74.5268 77.7561 C 0.0 **** 0.0
36951 C 64.2059 80.6807 78.2903 C 0.0 **** 0.0
36952 C 63.0959 79.6946 77.8932 C 0.0 **** 0.0
36953 C 65.5718 83.2573 79.0973 C 0.0 **** 0.0
36954 C 65.6102 82.0115 79.9537 C 0.0 **** 0.0
36955 S 63.9522 81.2509 79.9632 S 0.0 **** 0.0
36956 C 66.1195 82.2661 81.3064 C 0.0 **** 0.0
36957 C 67.5367 82.8022 81.1643 C 0.0 **** 0.0
36958 C 67.4762 84.175 80.5312 C 0.0 **** 0.0
36959 C 66.8826 84.0768 79.1602 C 0.0 **** 0.0
36960 C 68.8774 84.748 80.3723 C 0.0 **** 0.0
36961 C 69.7578 84.6237 81.6464 C 0.0 **** 0.0
36962 C 69.7085 83.1934 82.1925 C 0.0 **** 0.0
36963 C 68.2374 82.8436 82.4845 C 0.0 **** 0.0
36964 C 70.7646 83.0449 83.3231 C 0.0 **** 0.0
36965 C 72.0657 83.1953 82.5218 C 0.0 **** 0.0
36966 C 72.3019 84.6376 82.122 C 0.0 **** 0.0
36967 C 71.1506 85.0517 81.1879 C 0.0 **** 0.0
36968 C 66.6957 85.4149 78.3843 C 0.0 **** 0.0
36969 C 66.3676 85.141 76.9198 C 0.0 **** 0.0
36970 C 68.6774 86.1979 79.9242 C 0.0 **** 0.0
36971 C 67.9872 86.2676 78.5646 C 0.0 **** 0.0
36972 C 71.1271 86.544 80.8724 C 0.0 **** 0.0
36973 C 70.0251 86.9179 79.81 C 0.0 **** 0.0
36974 C 72.3574 85.5718 83.3925 C 0.0 **** 0.0
36975 C 72.3881 87.0272 82.9368 C 0.0 **** 0.0
36976 C 71.1476 87.4215 82.1186 C 0.0 **** 0.0
36977 O 73.1336 82.446 83.0828 O 0.0 **** 0.0
36978 C 72.8852 81.0628 82.837 C 0.0 **** 0.0
36979 C 71.5534 80.5476 83.4791 C 0.0 **** 0.0
36980 C 70.7842 81.7123 84.1357 C 0.0 **** 0.0
36981 C 71.7369 79.3943 84.4858 C 0.0 **** 0.0
36982 C 72.6424 78.3121 83.8611 C 0.0 **** 0.0
36983 C 74.0902 78.7896 83.7798 C 0.0 **** 0.0
36984 C 74.188 80.2949 83.2368 C 0.0 **** 0.0
36985 C 75.2485 80.4066 82.1115 C 0.0 **** 0.0
36986 C 76.5062 79.6366 82.4769 C 0.0 **** 0.0
36987 C 76.2736 78.1908 82.9117 C 0.0 **** 0.0
36988 N 74.8509 77.8445 82.9182 N 0.0 **** 0.0
36989 C 67.9613 87.6971 77.9564 C 0.0 **** 0.0
36990 C 68.6547 88.7536 78.7621 C 0.0 **** 0.0
36991 C 69.8735 88.403 79.5956 C 0.0 **** 0.0
36992 O 68.8651 89.9129 77.9373 O 0.0 **** 0.0
36993 C 67.5537 90.4341 77.6868 C 0.0 **** 0.0
36994 C 66.5955 89.3485 77.0326 C 0.0 **** 0.0
36995 O 66.6298 88.1397 77.7646 O 0.0 **** 0.0
36996 C 66.8614 89.1508 75.5084 C 0.0 **** 0.0
36997 C 66.6631 90.4438 74.7387 C 0.0 **** 0.0
36998 C 66.6273 91.7261 75.6578 C 0.0 **** 0.0
36999 C 67.7292 91.6421 76.7377 C 0.0 **** 0.0
37000 C 71.2506 88.8676 81.6808 C 0.0 **** 0.0
37001 C 69.964 89.1738 80.9472 C 0.0 **** 0.0
37002 C 72.6939 87.952 84.1153 C 0.0 **** 0.0
37003 C 72.7542 89.4265 83.6623 C 0.0 **** 0.0
37004 C 71.4558 89.8055 82.9081 C 0.0 **** 0.0
37005 C 74.0574 87.654 84.7793 C 0.0 **** 0.0
37006 C 74.01 86.2794 85.3454 C 0.0 **** 0.0
37007 C 73.6382 85.2809 84.2339 C 0.0 **** 0.0
37008 O 72.8868 90.2648 84.8106 O 0.0 **** 0.0
37009 C 74.2121 90.0825 85.2755 C 0.0 **** 0.0
37010 C 74.3319 88.6545 85.8644 C 0.0 **** 0.0
37011 C 75.3575 85.901 86.0839 C 0.0 **** 0.0
37012 C 75.8889 87.003 86.9998 C 0.0 **** 0.0
37013 C 75.7314 88.4369 86.428 C 0.0 **** 0.0
37014 C 77.3776 86.8134 87.4038 C 0.0 **** 0.0
37015 C 77.7865 85.3328 87.5005 C 0.0 **** 0.0
37016 C 77.5201 84.6039 86.1305 C 0.0 **** 0.0
37017 C 76.5073 85.3475 85.2243 C 0.0 **** 0.0
37018 C 75.9685 89.4253 87.6184 C 0.0 **** 0.0
37019 C 75.9028 90.8316 87.061 C 0.0 **** 0.0
37020 C 74.4654 91.0884 86.4665 C 0.0 **** 0.0
37021 C 77.6007 87.7207 88.6317 C 0.0 **** 0.0
37022 C 77.4244 89.1844 88.1601 C 0.0 **** 0.0
37023 C 65.8345 74.6016 73.906 C 0.0 **** 0.0
37024 C 67.2035 75.2746 73.9571 C 0.0 **** 0.0
37025 C 65.9934 73.1725 73.491 C 0.0 **** 0.0
37026 O 69.4893 81.3547 84.5165 O 0.0 **** 0.0
37027 C 74.2834 92.5848 85.983 C 0.0 **** 0.0
37028 C 75.4764 93.4905 86.2542 C 0.0 **** 0.0
37029 C 75.9838 93.3372 87.7259 C 0.0 **** 0.0
37030 C 76.2351 91.8532 88.1657 C 0.0 **** 0.0
37031 C 77.6521 91.6309 88.7058 C 0.0 **** 0.0
37032 C 78.1142 92.6787 89.7654 C 0.0 **** 0.0
37033 C 77.7044 94.1533 89.421 C 0.0 **** 0.0
37034 C 77.1673 94.2821 88.0157 C 0.0 **** 0.0
37035 C 78.7662 95.2147 89.6909 C 0.0 **** 0.0
37036 C 79.6748 94.8768 90.9136 C 0.0 **** 0.0
37037 C 80.4404 93.6369 90.556 C 0.0 **** 0.0
37038 C 79.6252 92.4912 89.8764 C 0.0 **** 0.0
37039 C 79.8677 91.0493 90.432 C 0.0 **** 0.0
37040 C 79.2872 89.9511 89.5655 C 0.0 **** 0.0
37041 C 77.8147 90.2111 89.2383 C 0.0 **** 0.0
37042 C 81.3808 90.8485 90.6121 C 0.0 **** 0.0
37043 C 81.9126 91.7777 91.7091 C 0.0 **** 0.0
37044 C 81.2557 93.1502 91.7558 C 0.0 **** 0.0
37045 C 78.9349 87.4181 89.3669 C 0.0 **** 0.0
37046 C 79.37 88.6197 90.237 C 0.0 **** 0.0
37047 C 81.8665 89.3902 90.6332 C 0.0 **** 0.0
37048 C 80.7821 88.321 90.8837 C 0.0 **** 0.0
37049 C 80.6513 87.8624 92.3484 C 0.0 **** 0.0
37050 C 82.0353 87.3617 92.7814 C 0.0 **** 0.0
37051 C 83.0343 88.5041 92.8238 C 0.0 **** 0.0
37052 C 83.1539 89.0411 91.4374 C 0.0 **** 0.0
37053 O 84.2442 89.1179 90.8955 O 0.0 **** 0.0
37054 H 62.4222 79.0807 68.841 H 0.0 **** 0.0
37055 H 62.0544 79.9682 70.3503 H 0.0 **** 0.0
37056 H 60.5161 77.6622 68.9807 H 0.0 **** 0.0
37057 H 60.7632 78.0124 70.7 H 0.0 **** 0.0
37058 H 58.7927 79.1014 68.6364 H 0.0 **** 0.0
37059 H 58.1962 81.0618 70.0663 H 0.0 **** 0.0
37060 H 60.9256 81.9222 70.1005 H 0.0 **** 0.0
37061 H 59.7245 82.1465 68.8011 H 0.0 **** 0.0
37062 H 60.6474 80.656 71.93 H 0.0 **** 0.0
37063 H 59.5815 78.6457 72.5662 H 0.0 **** 0.0
37064 H 56.9937 79.8018 71.6197 H 0.0 **** 0.0
37065 H 57.1644 78.1824 72.5816 H 0.0 **** 0.0
37066 H 57.1053 78.0509 69.9484 H 0.0 **** 0.0
37067 H 58.5001 77.3181 70.8149 H 0.0 **** 0.0
37068 H 59.0498 81.1185 75.5161 H 0.0 **** 0.0
37069 H 58.6942 82.8472 74.3443 H 0.0 **** 0.0
37070 H 59.4909 82.936 71.784 H 0.0 **** 0.0
37071 H 57.9286 82.1779 72.3114 H 0.0 **** 0.0
37072 H 61.2379 79.7185 73.886 H 0.0 **** 0.0
37073 H 64.0013 85.1626 74.1236 H 0.0 **** 0.0
37074 H 63.5269 84.1356 72.7809 H 0.0 **** 0.0
37075 H 61.8032 85.7531 72.6331 H 0.0 **** 0.0
37076 H 61.8028 86.0203 74.387 H 0.0 **** 0.0
37077 H 59.7385 84.7711 73.5419 H 0.0 **** 0.0
37078 H 62.5121 78.0128 74.8373 H 0.0 **** 0.0
37079 H 60.0935 78.1478 78.7334 H 0.0 **** 0.0
37080 H 59.0541 77.1581 77.6585 H 0.0 **** 0.0
37081 H 59.0841 79.4264 76.8307 H 0.0 **** 0.0
37082 H 60.934 76.0546 79.6312 H 0.0 **** 0.0
37083 H 61.0192 74.7767 78.2382 H 0.0 **** 0.0
37084 H 63.0306 74.5551 79.6058 H 0.0 **** 0.0
37085 H 63.3306 76.3519 79.5973 H 0.0 **** 0.0
37086 H 63.3984 75.9014 74.4501 H 0.0 **** 0.0
37087 H 64.7911 76.8722 75.12 H 0.0 **** 0.0
37088 H 64.3242 73.8537 75.2825 H 0.0 **** 0.0
37089 H 66.4859 75.5657 76.5812 H 0.0 **** 0.0
37090 H 66.5505 73.7756 76.4523 H 0.0 **** 0.0
37091 H 65.5158 74.8566 78.6389 H 0.0 **** 0.0
37092 H 64.7238 73.4669 77.9431 H 0.0 **** 0.0
37093 H 63.225 78.8133 78.5259 H 0.0 **** 0.0
37094 H 66.1589 81.2955 81.8981 H 0.0 **** 0.0
37095 H 67.6968 83.4482 83.2718 H 0.0 **** 0.0
37096 H 66.0833 86.0514 76.4032 H 0.0 **** 0.0
37097 H 72.7253 80.9524 81.7331 H 0.0 **** 0.0
37098 H 70.95 80.161 82.6042 H 0.0 **** 0.0
37099 H 71.4161 81.9548 85.0953 H 0.0 **** 0.0
37100 H 72.1748 79.7922 85.4447 H 0.0 **** 0.0
37101 H 70.7675 78.9785 84.7836 H 0.0 **** 0.0
37102 H 72.298 78.0079 82.8792 H 0.0 **** 0.0
37103 H 72.5152 77.4467 84.4752 H 0.0 **** 0.0
37104 H 74.5428 78.7798 84.7741 H 0.0 **** 0.0
37105 H 74.5504 80.8929 84.1211 H 0.0 **** 0.0
37106 H 74.875 80.0473 81.1636 H 0.0 **** 0.0
37107 H 75.537 81.4439 81.97 H 0.0 **** 0.0
37108 H 77.0184 80.2066 83.3039 H 0.0 **** 0.0
37109 H 77.1887 79.5902 81.5818 H 0.0 **** 0.0
37110 H 76.7418 78.1293 83.8871 H 0.0 **** 0.0
37111 H 76.8114 77.5355 82.2078 H 0.0 **** 0.0
37112 H 74.4514 77.9753 81.9614 H 0.0 **** 0.0
37113 H 67.1151 90.8186 78.6207 H 0.0 **** 0.0
37114 H 65.5836 89.7862 77.1837 H 0.0 **** 0.0
37115 H 67.9067 88.7625 75.319 H 0.0 **** 0.0
37116 H 66.2126 88.3425 75.0905 H 0.0 **** 0.0
37117 H 65.7132 90.4323 74.1981 H 0.0 **** 0.0
37118 H 67.4053 90.5296 73.9643 H 0.0 **** 0.0
37119 H 65.6222 91.781 76.1629 H 0.0 **** 0.0
37120 H 66.7796 92.6933 75.1314 H 0.0 **** 0.0
37121 H 67.763 92.595 77.3392 H 0.0 **** 0.0
37122 H 68.7256 91.5926 76.2309 H 0.0 **** 0.0
37123 H 69.9156 90.2238 80.7294 H 0.0 **** 0.0
37124 H 71.5283 90.828 82.566 H 0.0 **** 0.0
37125 H 73.4845 84.3226 84.7821 H 0.0 **** 0.0
37126 H 75.0879 85.0281 86.7981 H 0.0 **** 0.0
37127 H 75.2743 86.9732 87.8851 H 0.0 **** 0.0
37128 H 78.0275 87.2642 86.6156 H 0.0 **** 0.0
37129 H 77.1779 84.8203 88.2461 H 0.0 **** 0.0
37130 H 78.8699 85.3063 87.7066 H 0.0 **** 0.0
37131 H 77.1191 83.6138 86.3878 H 0.0 **** 0.0
37132 H 78.5187 84.4406 85.5878 H 0.0 **** 0.0
37133 H 76.1137 84.6206 84.515 H 0.0 **** 0.0
37134 H 76.9965 86.1658 84.7214 H 0.0 **** 0.0
37135 H 65.2396 75.1861 73.1409 H 0.0 **** 0.0
37136 H 67.6496 75.3806 72.9815 H 0.0 **** 0.0
37137 H 67.9379 74.6809 74.6039 H 0.0 **** 0.0
37138 H 67.1064 76.2641 74.3974 H 0.0 **** 0.0
37139 H 64.9637 72.647 73.5725 H 0.0 **** 0.0
37140 H 66.7455 72.6293 74.1112 H 0.0 **** 0.0
37141 H 66.3217 73.0604 72.4307 H 0.0 **** 0.0
37142 H 69.3172 81.8397 85.3408 H 0.0 **** 0.0
37143 H 73.3656 93.0033 86.3356 H 0.0 **** 0.0
37144 H 75.0661 94.5009 86.1653 H 0.0 **** 0.0
37145 H 76.8056 95.2821 87.8187 H 0.0 **** 0.0
37146 H 78.2919 96.2008 89.8093 H 0.0 **** 0.0
37147 H 80.4109 95.6947 91.0524 H 0.0 **** 0.0
37148 H 83.0104 91.8373 91.5729 H 0.0 **** 0.0
37149 H 80.7793 93.3464 92.759 H 0.0 **** 0.0
37150 H 78.8191 86.4652 89.9522 H 0.0 **** 0.0
37151 H 80.2842 88.665 93.0589 H 0.0 **** 0.0
37152 H 79.9597 87.0097 92.4441 H 0.0 **** 0.0
37153 H 82.4691 86.474 92.2296 H 0.0 **** 0.0
37154 H 81.9903 87.038 93.795 H 0.0 **** 0.0
37155 H 83.9956 88.1323 93.2488 H 0.0 **** 0.0
37156 H 82.5807 89.2735 93.5194 H 0.0 **** 0.0
37157 C 109.193 20.7101 82.9639 C 0.0 **** 0.0
37158 C 109.808 20.9735 81.5958 C 0.0 **** 0.0
37159 C 109.451 22.3806 81.0937 C 0.0 **** 0.0
37160 C 107.911 22.7548 81.3316 C 0.0 **** 0.0
37161 C 107.505 22.3143 82.7599 C 0.0 **** 0.0
37162 O 107.781 20.9604 82.9545 O 0.0 **** 0.0
37163 C 106.896 22.2213 80.2347 C 0.0 **** 0.0
37164 C 107.571 22.0456 78.8275 C 0.0 **** 0.0
37165 C 108.763 22.9845 78.6524 C 0.0 **** 0.0
37166 C 109.905 22.5699 79.589 C 0.0 **** 0.0
37167 O 106.708 22.2087 77.7416 O 0.0 **** 0.0
37168 C 105.419 21.6704 77.9626 C 0.0 **** 0.0
37169 C 104.703 22.5916 78.9327 C 0.0 **** 0.0
37170 C 105.574 23.0318 80.159 C 0.0 **** 0.0
37171 C 103.319 22.0322 79.2258 C 0.0 **** 0.0
37172 C 102.981 20.623 79.1799 C 0.0 **** 0.0
37173 C 103.749 19.7664 78.1697 C 0.0 **** 0.0
37174 C 105.252 20.1359 78.3026 C 0.0 **** 0.0
37175 C 103.456 18.2727 78.4398 C 0.0 **** 0.0
37176 C 101.942 17.9184 78.4779 C 0.0 **** 0.0
37177 C 100.973 19.1022 78.436 C 0.0 **** 0.0
37178 C 101.47 20.2532 79.3525 C 0.0 **** 0.0
37179 C 100.51 21.4064 79.4314 C 0.0 **** 0.0
37180 C 101.08 22.4664 80.296 C 0.0 **** 0.0
37181 C 102.38 22.9261 79.7381 C 0.0 **** 0.0
37182 O 99.6459 18.6946 78.7077 O 0.0 **** 0.0
37183 C 99.224 17.8436 77.6732 C 0.0 **** 0.0
37184 C 100.058 16.5706 77.5661 C 0.0 **** 0.0
37185 C 101.55 16.8979 77.4518 C 0.0 **** 0.0
37186 C 105.996 19.1437 77.4246 C 0.0 **** 0.0
37187 C 105.88 17.71 77.8525 C 0.0 **** 0.0
37188 C 104.361 17.3661 77.5856 C 0.0 **** 0.0
37189 C 106.75 16.7958 77.0019 C 0.0 **** 0.0
37190 C 107.123 17.129 75.7493 C 0.0 **** 0.0
37191 C 106.915 18.5134 75.1598 C 0.0 **** 0.0
37192 C 106.383 19.4826 76.1799 C 0.0 **** 0.0
37193 C 107.807 16.0875 74.9266 C 0.0 **** 0.0
37194 C 107.222 14.7216 75.2148 C 0.0 **** 0.0
37195 C 107.238 14.4441 76.69 C 0.0 **** 0.0
37196 C 107.189 15.4824 77.5507 C 0.0 **** 0.0
37197 C 107.325 15.3149 79.0236 C 0.0 **** 0.0
37198 C 108.067 14.0058 79.369 C 0.0 **** 0.0
37199 C 107.268 12.8687 78.7178 C 0.0 **** 0.0
37200 C 107.441 13.0146 77.1941 C 0.0 **** 0.0
37201 C 102.404 15.694 77.5735 C 0.0 **** 0.0
37202 C 103.925 15.938 77.8632 C 0.0 **** 0.0
37203 C 99.6316 15.6963 76.3098 C 0.0 **** 0.0
37204 C 100.422 14.3968 76.2052 C 0.0 **** 0.0
37205 S 102.22 14.7421 76.0471 S 0.0 **** 0.0
37206 C 99.9802 13.5554 75.0121 C 0.0 **** 0.0
37207 C 98.4653 13.3142 74.9963 C 0.0 **** 0.0
37208 C 97.6967 14.6358 75.0763 C 0.0 **** 0.0
37209 C 98.1444 15.4572 76.2535 C 0.0 **** 0.0
37210 C 96.195 14.2432 75.1771 C 0.0 **** 0.0
37211 C 95.7357 13.63 73.8431 C 0.0 **** 0.0
37212 C 96.6086 12.4356 73.4452 C 0.0 **** 0.0
37213 C 98.1524 12.6392 73.6793 C 0.0 **** 0.0
37214 C 96.2399 12.2146 71.9699 C 0.0 **** 0.0
37215 C 94.8535 11.6213 71.9195 C 0.0 **** 0.0
37216 C 93.8316 12.7036 72.4267 C 0.0 **** 0.0
37217 C 94.2836 13.1576 73.8339 C 0.0 **** 0.0
37218 C 97.4171 16.7928 76.3877 C 0.0 **** 0.0
37219 C 97.7395 17.4159 77.7437 C 0.0 **** 0.0
37220 C 95.2489 15.3415 75.7325 C 0.0 **** 0.0
37221 C 95.9169 16.7309 75.8668 C 0.0 **** 0.0
37222 C 93.2722 14.0715 74.6312 C 0.0 **** 0.0
37223 C 93.9199 15.4301 74.9692 C 0.0 **** 0.0
37224 C 92.2812 12.3729 72.2479 C 0.0 **** 0.0
37225 C 91.4142 12.8314 73.4408 C 0.0 **** 0.0
37226 C 91.923 14.2163 73.9399 C 0.0 **** 0.0
37227 O 94.616 11.149 70.6069 O 0.0 **** 0.0
37228 C 95.4033 9.97841 70.359 C 0.0 **** 0.0
37229 C 96.9064 10.3191 70.3629 C 0.0 **** 0.0
37230 C 97.2112 11.7347 70.8418 C 0.0 **** 0.0
37231 C 97.5997 10.1085 69.0309 C 0.0 **** 0.0
37232 C 97.4263 8.66098 68.62 C 0.0 **** 0.0
37233 C 95.9691 8.15754 68.5517 C 0.0 **** 0.0
37234 C 94.9411 9.22256 69.0592 C 0.0 **** 0.0
37235 C 93.5432 8.55843 69.258 C 0.0 **** 0.0
37236 C 93.3967 7.21967 68.5495 C 0.0 **** 0.0
37237 C 94.4995 6.27451 69.0233 C 0.0 **** 0.0
37238 N 95.8124 6.87572 69.2673 N 0.0 **** 0.0
37239 C 94.9514 17.7876 76.4481 C 0.0 **** 0.0
37240 C 93.5603 17.7872 75.7674 C 0.0 **** 0.0
37241 C 92.9505 16.3836 75.6833 C 0.0 **** 0.0
37242 O 92.7059 18.7304 76.3639 O 0.0 **** 0.0
37243 C 93.2599 20.0302 76.168 C 0.0 **** 0.0
37244 C 94.6515 20.0818 76.9004 C 0.0 **** 0.0
37245 O 95.5254 19.1133 76.3375 O 0.0 **** 0.0
37246 C 94.476 19.89 78.4437 C 0.0 **** 0.0
37247 C 93.2076 20.3883 79.0598 C 0.0 **** 0.0
37248 C 92.6602 21.525 78.197 C 0.0 **** 0.0
37249 C 92.2998 21.0997 76.7316 C 0.0 **** 0.0
37250 C 90.9905 14.999 74.8082 C 0.0 **** 0.0
37251 C 91.5363 16.3978 75.0281 C 0.0 **** 0.0
37252 C 90.0011 12.9428 72.8635 C 0.0 **** 0.0
37253 C 89.0334 13.587 73.8401 C 0.0 **** 0.0
37254 C 89.5617 14.9996 74.2261 C 0.0 **** 0.0
37255 C 89.4547 11.5403 72.5415 C 0.0 **** 0.0
37256 C 90.3508 10.9192 71.4453 C 0.0 **** 0.0
37257 C 91.8268 10.9053 71.8939 C 0.0 **** 0.0
37258 O 87.7785 13.7668 73.1926 O 0.0 **** 0.0
37259 C 87.2038 12.4345 73.0378 C 0.0 **** 0.0
37260 C 88.0383 11.6776 72.0088 C 0.0 **** 0.0
37261 C 89.8459 9.55812 70.9344 C 0.0 **** 0.0
37262 C 88.2868 9.48171 70.7472 C 0.0 **** 0.0
37263 C 87.4539 10.2998 71.7521 C 0.0 **** 0.0
37264 C 87.7381 8.04038 70.737 C 0.0 **** 0.0
37265 C 88.7281 7.01654 70.1586 C 0.0 **** 0.0
37266 C 89.9855 6.97334 71.0903 C 0.0 **** 0.0
37267 C 90.3867 8.31824 71.7421 C 0.0 **** 0.0
37268 C 86.011 10.3228 71.2959 C 0.0 **** 0.0
37269 C 85.1466 11.1163 72.332 C 0.0 **** 0.0
37270 C 85.7715 12.5197 72.5375 C 0.0 **** 0.0
37271 C 86.3088 8.08778 70.1039 C 0.0 **** 0.0
37272 C 85.4027 8.94306 71.0217 C 0.0 **** 0.0
37273 C 108.331 13.7822 80.8947 C 0.0 **** 0.0
37274 C 107.076 13.7482 81.7789 C 0.0 **** 0.0
37275 C 109.227 12.5576 81.1222 C 0.0 **** 0.0
37276 O 98.5611 11.9 71.114 O 0.0 **** 0.0
37277 C 84.895 13.3911 73.427 C 0.0 **** 0.0
37278 C 83.5271 13.509 72.8632 C 0.0 **** 0.0
37279 C 82.9043 12.1006 72.727 C 0.0 **** 0.0
37280 C 83.7382 11.2845 71.7376 C 0.0 **** 0.0
37281 C 83.1196 9.88582 71.4497 C 0.0 **** 0.0
37282 C 81.7675 10.1236 70.8556 C 0.0 **** 0.0
37283 C 80.8881 10.8875 71.8672 C 0.0 **** 0.0
37284 C 81.4752 12.2485 72.2378 C 0.0 **** 0.0
37285 C 79.5303 11.1522 71.3158 C 0.0 **** 0.0
37286 C 78.8767 9.91273 70.7532 C 0.0 **** 0.0
37287 C 79.746 9.0502 69.8444 C 0.0 **** 0.0
37288 C 81.1 8.76443 70.5185 C 0.0 **** 0.0
37289 C 81.9695 7.93858 69.5834 C 0.0 **** 0.0
37290 C 83.3981 7.7419 70.1887 C 0.0 **** 0.0
37291 C 83.9971 9.12294 70.4335 C 0.0 **** 0.0
37292 C 81.3318 6.58573 69.3674 C 0.0 **** 0.0
37293 C 79.8398 6.75832 68.8448 C 0.0 **** 0.0
37294 C 78.9888 7.73511 69.644 C 0.0 **** 0.0
37295 C 85.6661 6.66697 69.9594 C 0.0 **** 0.0
37296 C 84.3004 6.83055 69.3227 C 0.0 **** 0.0
37297 C 82.2046 5.78763 68.3638 C 0.0 **** 0.0
37298 C 83.5164 5.49805 69.1219 C 0.0 **** 0.0
37299 C 84.3256 4.34996 68.5072 C 0.0 **** 0.0
37300 C 83.4686 3.05213 68.3279 C 0.0 **** 0.0
37301 C 81.9714 3.2383 68.5474 C 0.0 **** 0.0
37302 C 81.5609 4.49927 67.9016 C 0.0 **** 0.0
37303 O 80.741 4.49467 66.9946 O 0.0 **** 0.0
37304 H 109.762 21.329 83.7113 H 0.0 **** 0.0
37305 H 109.347 19.6797 83.2291 H 0.0 **** 0.0
37306 H 110.94 20.7659 81.6978 H 0.0 **** 0.0
37307 H 109.393 20.1783 80.8481 H 0.0 **** 0.0
37308 H 110.001 23.0737 81.7138 H 0.0 **** 0.0
37309 H 107.886 23.8905 81.3138 H 0.0 **** 0.0
37310 H 106.38 22.4562 82.8684 H 0.0 **** 0.0
37311 H 108.092 22.9978 83.4846 H 0.0 **** 0.0
37312 H 106.543 21.2759 80.6057 H 0.0 **** 0.0
37313 H 107.976 21.0291 78.7981 H 0.0 **** 0.0
37314 H 108.408 23.9772 78.8563 H 0.0 **** 0.0
37315 H 109.068 22.9829 77.582 H 0.0 **** 0.0
37316 H 110.699 23.3886 79.4656 H 0.0 **** 0.0
37317 H 110.421 21.6779 79.2355 H 0.0 **** 0.0
37318 H 104.864 21.8517 76.9959 H 0.0 **** 0.0
37319 H 104.502 23.5262 78.3252 H 0.0 **** 0.0
37320 H 105.04 22.8492 81.1117 H 0.0 **** 0.0
37321 H 105.83 24.1249 80.1313 H 0.0 **** 0.0
37322 H 105.598 19.9424 79.3167 H 0.0 **** 0.0
37323 H 100.342 21.8519 78.3892 H 0.0 **** 0.0
37324 H 99.5667 21.0053 79.8646 H 0.0 **** 0.0
37325 H 101.249 22.0602 81.3163 H 0.0 **** 0.0
37326 H 100.426 23.345 80.4571 H 0.0 **** 0.0
37327 H 102.631 23.9818 79.7982 H 0.0 **** 0.0
37328 H 106.065 17.5469 78.9195 H 0.0 **** 0.0
37329 H 106.206 18.4613 74.3764 H 0.0 **** 0.0
37330 H 107.908 18.8961 74.8349 H 0.0 **** 0.0
37331 H 106.287 20.5315 75.8204 H 0.0 **** 0.0
37332 H 107.657 16.3065 73.8662 H 0.0 **** 0.0
37333 H 108.889 16.0833 75.2258 H 0.0 **** 0.0
37334 H 107.892 13.9524 74.7522 H 0.0 **** 0.0
37335 H 106.168 14.6584 74.8373 H 0.0 **** 0.0
37336 H 107.92 16.1233 79.5203 H 0.0 **** 0.0
37337 H 106.309 15.2246 79.4736 H 0.0 **** 0.0
37338 H 109.113 14.0394 78.8779 H 0.0 **** 0.0
37339 H 106.183 12.9327 79.0051 H 0.0 **** 0.0
37340 H 107.63 11.8703 78.9725 H 0.0 **** 0.0
37341 H 106.731 12.3362 76.687 H 0.0 **** 0.0
37342 H 108.431 12.6726 76.8522 H 0.0 **** 0.0
37343 H 104.618 15.1831 77.4589 H 0.0 **** 0.0
37344 H 100.453 12.5593 75.1509 H 0.0 **** 0.0
37345 H 98.479 11.5693 73.6461 H 0.0 **** 0.0
37346 H 97.1044 18.2606 78.0388 H 0.0 **** 0.0
37347 H 95.2527 9.27328 71.1578 H 0.0 **** 0.0
37348 H 97.4022 9.68204 71.141 H 0.0 **** 0.0
37349 H 96.9776 12.3896 69.9944 H 0.0 **** 0.0
37350 H 97.1855 10.8405 68.2462 H 0.0 **** 0.0
37351 H 98.6562 10.3698 69.0826 H 0.0 **** 0.0
37352 H 98.0113 8.05768 69.2915 H 0.0 **** 0.0
37353 H 97.9232 8.46065 67.6792 H 0.0 **** 0.0
37354 H 95.76 8.01328 67.4454 H 0.0 **** 0.0
37355 H 94.8377 9.97948 68.2196 H 0.0 **** 0.0
37356 H 93.294 8.38819 70.3067 H 0.0 **** 0.0
37357 H 92.804 9.26395 68.9393 H 0.0 **** 0.0
37358 H 93.4984 7.3972 67.4532 H 0.0 **** 0.0
37359 H 92.3591 6.82946 68.7393 H 0.0 **** 0.0
37360 H 94.6545 5.52762 68.2324 H 0.0 **** 0.0
37361 H 94.1449 5.69047 69.9067 H 0.0 **** 0.0
37362 H 95.9218 7.08009 70.2902 H 0.0 **** 0.0
37363 H 93.3603 20.2138 75.0577 H 0.0 **** 0.0
37364 H 95.1624 21.0643 76.706 H 0.0 **** 0.0
37365 H 94.5572 18.8529 78.7509 H 0.0 **** 0.0
37366 H 95.3224 20.4229 78.8935 H 0.0 **** 0.0
37367 H 93.3848 20.7025 80.0793 H 0.0 **** 0.0
37368 H 92.4893 19.5886 79.1097 H 0.0 **** 0.0
37369 H 93.446 22.3218 78.0975 H 0.0 **** 0.0
37370 H 91.7641 21.9495 78.6153 H 0.0 **** 0.0
37371 H 92.2806 22.04 76.0918 H 0.0 **** 0.0
37372 H 91.2681 20.6432 76.7714 H 0.0 **** 0.0
37373 H 90.8528 16.9923 75.7024 H 0.0 **** 0.0
37374 H 88.8708 15.5727 74.9167 H 0.0 **** 0.0
37375 H 92.4191 10.5371 71.0686 H 0.0 **** 0.0
37376 H 90.3311 9.43344 69.9373 H 0.0 **** 0.0
37377 H 88.1095 9.892 69.7278 H 0.0 **** 0.0
37378 H 87.5724 7.69261 71.8146 H 0.0 **** 0.0
37379 H 88.9631 7.32307 69.112 H 0.0 **** 0.0
37380 H 88.3249 5.99291 70.1662 H 0.0 **** 0.0
37381 H 90.8553 6.54264 70.4995 H 0.0 **** 0.0
37382 H 89.8313 6.27952 71.9391 H 0.0 **** 0.0
37383 H 91.4877 8.33216 71.8501 H 0.0 **** 0.0
37384 H 89.9972 8.29343 72.807 H 0.0 **** 0.0
37385 H 108.931 14.6465 81.2281 H 0.0 **** 0.0
37386 H 107.388 13.528 82.8642 H 0.0 **** 0.0
37387 H 106.395 12.9526 81.4266 H 0.0 **** 0.0
37388 H 106.516 14.7155 81.7491 H 0.0 **** 0.0
37389 H 110.228 12.7301 80.6044 H 0.0 **** 0.0
37390 H 108.795 11.5863 80.8169 H 0.0 **** 0.0
37391 H 109.466 12.4848 82.207 H 0.0 **** 0.0
37392 H 98.7786 12.8539 71.0166 H 0.0 **** 0.0
37393 H 85.3381 14.392 73.5198 H 0.0 **** 0.0
37394 H 82.9715 14.1783 73.5682 H 0.0 **** 0.0
37395 H 80.8754 12.7257 73.063 H 0.0 **** 0.0
37396 H 78.9164 11.5565 72.169 H 0.0 **** 0.0
37397 H 77.9408 10.2 70.2098 H 0.0 **** 0.0
37398 H 79.3318 5.79528 68.8418 H 0.0 **** 0.0
37399 H 78.0549 7.91412 69.0885 H 0.0 **** 0.0
37400 H 86.2728 6.0526 69.2498 H 0.0 **** 0.0
37401 H 84.6534 4.72653 67.5253 H 0.0 **** 0.0
37402 H 85.2015 4.14287 69.1901 H 0.0 **** 0.0
37403 H 83.8396 2.26569 69.0462 H 0.0 **** 0.0
37404 H 83.5953 2.66698 67.2939 H 0.0 **** 0.0
37405 H 81.7013 3.207 69.6175 H 0.0 **** 0.0
37406 H 81.4319 2.36511 68.1225 H 0.0 **** 0.0
37407 C 0.436283 18.0817 16.7326 C 0.0 **** 0.0
37408 C 1.84889 18.252 16.108 C 0.0 **** 0.0
37409 C 2.51665 16.8647 15.9698 C 0.0 **** 0.0
37410 C 2.50403 16.0966 17.3343 C 0.0 **** 0.0
37411 C 1.27517 16.4899 18.1376 C 0.0 **** 0.0
37412 O 0.244782 16.7622 17.1707 O 0.0 **** 0.0
37413 C 3.89569 16.2166 18.0545 C 0.0 **** 0.0
37414 C 5.07124 15.6342 17.1595 C 0.0 **** 0.0
37415 C 4.79573 15.8028 15.6448 C 0.0 **** 0.0
37416 C 3.87813 17.0045 15.392 C 0.0 **** 0.0
37417 O 5.24406 14.2248 17.3596 O 0.0 **** 0.0
37418 C 5.5868 13.9313 18.7205 C 0.0 **** 0.0
37419 C 4.42358 14.19 19.6656 C 0.0 **** 0.0
37420 C 3.94465 15.659 19.5125 C 0.0 **** 0.0
37421 C 4.81388 13.8509 21.0978 C 0.0 **** 0.0
37422 C 6.06518 14.2642 21.5854 C 0.0 **** 0.0
37423 C 7.24628 14.0497 20.5912 C 0.0 **** 0.0
37424 C 6.91671 14.5749 19.2007 C 0.0 **** 0.0
37425 C 8.61399 14.5205 21.168 C 0.0 **** 0.0
37426 C 8.85242 13.9506 22.5395 C 0.0 **** 0.0
37427 C 7.71151 14.2033 23.4983 C 0.0 **** 0.0
37428 C 6.40127 13.6867 22.9642 C 0.0 **** 0.0
37429 C 5.2254 13.8876 23.9335 C 0.0 **** 0.0
37430 C 4.01818 13.1018 23.3837 C 0.0 **** 0.0
37431 C 3.77894 13.5001 21.9722 C 0.0 **** 0.0
37432 O 8.1 13.6023 24.7389 O 0.0 **** 0.0
37433 C 8.95894 14.5454 25.4419 C 0.0 **** 0.0
37434 C 10.2188 14.877 24.6277 C 0.0 **** 0.0
37435 C 10.2352 14.1677 23.1944 C 0.0 **** 0.0
37436 C 8.15179 14.3387 18.3399 C 0.0 **** 0.0
37437 C 9.41451 15.0336 18.7947 C 0.0 **** 0.0
37438 C 9.77989 14.3566 20.1722 C 0.0 **** 0.0
37439 C 10.5208 15.0103 17.7179 C 0.0 **** 0.0
37440 C 10.6555 13.8725 16.999 C 0.0 **** 0.0
37441 C 9.49728 12.9352 16.7219 C 0.0 **** 0.0
37442 C 8.22807 13.3704 17.3996 C 0.0 **** 0.0
37443 C 11.9025 13.6443 16.1536 C 0.0 **** 0.0
37444 C 12.9611 14.6824 16.3436 C 0.0 **** 0.0
37445 C 12.5418 16.084 16.7243 C 0.0 **** 0.0
37446 C 11.3875 16.2259 17.4031 C 0.0 **** 0.0
37447 C 10.7718 17.5742 17.7105 C 0.0 **** 0.0
37448 C 11.477 18.7102 16.9668 C 0.0 **** 0.0
37449 C 13.0259 18.5637 17.1461 C 0.0 **** 0.0
37450 C 13.4955 17.2711 16.4122 C 0.0 **** 0.0
37451 C 11.1474 14.9745 22.2886 C 0.0 **** 0.0
37452 C 11.1514 14.5492 20.8411 C 0.0 **** 0.0
37453 C 11.5391 14.7654 25.3453 C 0.0 **** 0.0
37454 C 12.6394 15.4542 24.5626 C 0.0 **** 0.0
37455 S 12.8473 14.6351 22.9203 S 0.0 **** 0.0
37456 C 13.9806 15.3516 25.2593 C 0.0 **** 0.0
37457 C 14.0445 15.5419 26.776 C 0.0 **** 0.0
37458 C 12.8624 14.8509 27.4586 C 0.0 **** 0.0
37459 C 11.5255 15.2404 26.8329 C 0.0 **** 0.0
37460 C 13.0001 15.055 28.9758 C 0.0 **** 0.0
37461 C 14.3207 14.3603 29.4622 C 0.0 **** 0.0
37462 C 15.5693 14.8693 28.7454 C 0.0 **** 0.0
37463 C 15.3495 14.8786 27.2353 C 0.0 **** 0.0
37464 C 16.8337 14.0717 29.2436 C 0.0 **** 0.0
37465 C 16.9435 13.8391 30.7431 C 0.0 **** 0.0
37466 C 15.6537 13.4918 31.4266 C 0.0 **** 0.0
37467 C 14.5666 14.5038 30.9765 C 0.0 **** 0.0
37468 C 10.3314 14.6059 27.6088 C 0.0 **** 0.0
37469 C 9.29306 13.8694 26.7434 C 0.0 **** 0.0
37470 C 11.7102 14.6754 29.711 C 0.0 **** 0.0
37471 C 10.7037 13.8471 28.9172 C 0.0 **** 0.0
37472 C 13.2572 14.575 31.8156 C 0.0 **** 0.0
37473 C 11.9515 14.1461 31.1029 C 0.0 **** 0.0
37474 C 15.805 13.3217 32.9888 C 0.0 **** 0.0
37475 C 14.7166 14.0831 33.7819 C 0.0 **** 0.0
37476 C 13.3542 13.8501 33.1094 C 0.0 **** 0.0
37477 O 17.9371 12.8492 30.9136 O 0.0 **** 0.0
37478 C 19.2223 13.4418 30.8894 C 0.0 **** 0.0
37479 C 19.3779 14.4652 29.6869 C 0.0 **** 0.0
37480 C 18.2384 14.3617 28.6362 C 0.0 **** 0.0
37481 C 20.7835 14.4017 28.9587 C 0.0 **** 0.0
37482 C 21.8907 14.1822 29.9653 C 0.0 **** 0.0
37483 C 21.7797 12.7465 30.5877 C 0.0 **** 0.0
37484 C 20.2854 12.2989 30.8567 C 0.0 **** 0.0
37485 C 20.2059 11.428 32.1709 C 0.0 **** 0.0
37486 C 21.4386 10.535 32.3814 C 0.0 **** 0.0
37487 C 22.7209 11.428 32.4553 C 0.0 **** 0.0
37488 N 22.5938 12.7552 31.8408 N 0.0 **** 0.0
37489 C 9.40001 13.5511 29.7262 C 0.0 **** 0.0
37490 C 9.6513 13.3075 31.2633 C 0.0 **** 0.0
37491 C 10.6802 14.2421 31.916 C 0.0 **** 0.0
37492 O 8.41218 13.2671 31.9096 O 0.0 **** 0.0
37493 C 7.76857 12.0626 31.4792 C 0.0 **** 0.0
37494 C 7.6029 12.0421 29.8978 C 0.0 **** 0.0
37495 O 8.81492 12.381 29.2127 O 0.0 **** 0.0
37496 C 6.40831 12.9404 29.4714 C 0.0 **** 0.0
37497 C 5.07248 12.5711 30.1881 C 0.0 **** 0.0
37498 C 5.25862 11.5081 31.3085 C 0.0 **** 0.0
37499 C 6.44724 11.8393 32.2449 C 0.0 **** 0.0
37500 C 12.1995 14.3243 34.0148 C 0.0 **** 0.0
37501 C 10.8319 13.9033 33.401 C 0.0 **** 0.0
37502 C 14.719 13.5813 35.238 C 0.0 **** 0.0
37503 C 13.56 14.1898 36.0743 C 0.0 **** 0.0
37504 C 12.2479 13.7852 35.4234 C 0.0 **** 0.0
37505 C 16.0777 13.9428 35.8696 C 0.0 **** 0.0
37506 C 17.1883 13.1743 35.1398 C 0.0 **** 0.0
37507 C 17.1592 13.5068 33.6568 C 0.0 **** 0.0
37508 O 13.6494 13.6833 37.3998 O 0.0 **** 0.0
37509 C 14.7973 14.1713 37.986 C 0.0 **** 0.0
37510 C 16.0262 13.547 37.3268 C 0.0 **** 0.0
37511 C 18.6258 13.3041 35.8153 C 0.0 **** 0.0
37512 C 18.5923 13.3959 37.3911 C 0.0 **** 0.0
37513 C 17.3054 14.1013 37.9342 C 0.0 **** 0.0
37514 C 19.8577 14.1619 38.0322 C 0.0 **** 0.0
37515 C 21.0977 13.7714 37.2104 C 0.0 **** 0.0
37516 C 20.9826 14.3237 35.7851 C 0.0 **** 0.0
37517 C 19.5294 14.4242 35.2565 C 0.0 **** 0.0
37518 C 17.3084 13.96 39.464 C 0.0 **** 0.0
37519 C 15.9853 14.4815 40.1116 C 0.0 **** 0.0
37520 C 14.8072 13.729 39.4767 C 0.0 **** 0.0
37521 C 19.8964 14.0099 39.5804 C 0.0 **** 0.0
37522 C 18.5586 14.5722 40.1364 C 0.0 **** 0.0
37523 C 10.9087 20.1098 17.2813 C 0.0 **** 0.0
37524 C 11.2285 20.5829 18.7199 C 0.0 **** 0.0
37525 C 11.405 21.2378 16.3087 C 0.0 **** 0.0
37526 O 18.2672 15.5339 27.8701 O 0.0 **** 0.0
37527 C 13.4522 14.0122 40.1608 C 0.0 **** 0.0
37528 C 13.5945 13.8323 41.6419 C 0.0 **** 0.0
37529 C 14.675 14.7131 42.2039 C 0.0 **** 0.0
37530 C 16.0203 14.274 41.6149 C 0.0 **** 0.0
37531 C 17.1408 15.0893 42.1996 C 0.0 **** 0.0
37532 C 17.1438 15.1298 43.7521 C 0.0 **** 0.0
37533 C 15.7764 15.6781 44.2427 C 0.0 **** 0.0
37534 C 14.6371 14.7487 43.7537 C 0.0 **** 0.0
37535 C 15.8213 15.6745 45.7854 C 0.0 **** 0.0
37536 C 16.8789 16.7108 46.2756 C 0.0 **** 0.0
37537 C 18.2386 16.353 45.7023 C 0.0 **** 0.0
37538 C 18.2347 16.1206 44.1598 C 0.0 **** 0.0
37539 C 19.6051 15.6155 43.7448 C 0.0 **** 0.0
37540 C 19.6707 15.3423 42.2346 C 0.0 **** 0.0
37541 C 18.5047 14.5228 41.7022 C 0.0 **** 0.0
37542 C 20.7769 16.6037 44.1473 C 0.0 **** 0.0
37543 C 20.6501 16.9899 45.6263 C 0.0 **** 0.0
37544 C 19.2697 17.4821 46.0278 C 0.0 **** 0.0
37545 C 21.119 14.6196 40.2434 C 0.0 **** 0.0
37546 C 20.9641 14.6807 41.7961 C 0.0 **** 0.0
37547 C 22.124 15.9518 43.7856 C 0.0 **** 0.0
37548 C 22.2344 15.357 42.3918 C 0.0 **** 0.0
37549 C 23.4726 14.4554 42.2125 C 0.0 **** 0.0
37550 C 24.6075 14.7365 43.2565 C 0.0 **** 0.0
37551 C 24.7032 16.2483 43.6404 C 0.0 **** 0.0
37552 C 23.3478 16.8232 43.9477 C 0.0 **** 0.0
37553 O 23.2516 17.938 44.4659 O 0.0 **** 0.0
37554 H -0.348214 18.2998 15.9598 H 0.0 **** 0.0
37555 H 0.337632 18.7854 17.5748 H 0.0 **** 0.0
37556 H 1.81654 18.8214 15.1421 H 0.0 **** 0.0
37557 H 2.46331 18.8825 16.7493 H 0.0 **** 0.0
37558 H 1.93417 16.2636 15.2198 H 0.0 **** 0.0
37559 H 2.509 15.0087 17.0553 H 0.0 **** 0.0
37560 H 1.46491 17.3032 18.8681 H 0.0 **** 0.0
37561 H 0.960348 15.6611 18.7601 H 0.0 **** 0.0
37562 H 4.09307 17.3046 18.1484 H 0.0 **** 0.0
37563 H 5.98469 16.199 17.3757 H 0.0 **** 0.0
37564 H 4.35901 14.8484 15.3366 H 0.0 **** 0.0
37565 H 5.74652 15.9731 15.1558 H 0.0 **** 0.0
37566 H 3.74071 17.091 14.2729 H 0.0 **** 0.0
37567 H 4.39384 17.887 15.7949 H 0.0 **** 0.0
37568 H 5.66058 12.8338 18.7648 H 0.0 **** 0.0
37569 H 3.57447 13.5628 19.2492 H 0.0 **** 0.0
37570 H 4.68002 16.3118 20.0735 H 0.0 **** 0.0
37571 H 2.96441 15.8374 19.9878 H 0.0 **** 0.0
37572 H 6.76133 15.6809 19.1946 H 0.0 **** 0.0
37573 H 5.54859 13.4544 24.9395 H 0.0 **** 0.0
37574 H 4.95852 14.9577 24.0047 H 0.0 **** 0.0
37575 H 3.12142 13.3214 24.0095 H 0.0 **** 0.0
37576 H 4.19974 11.9563 23.4397 H 0.0 **** 0.0
37577 H 2.80149 13.222 21.5438 H 0.0 **** 0.0
37578 H 9.09783 16.1121 18.985 H 0.0 **** 0.0
37579 H 9.76055 11.9152 17.1013 H 0.0 **** 0.0
37580 H 9.3057 12.9571 15.6393 H 0.0 **** 0.0
37581 H 7.34657 12.7055 17.1714 H 0.0 **** 0.0
37582 H 12.3203 12.5976 16.338 H 0.0 **** 0.0
37583 H 11.5405 13.6137 15.0875 H 0.0 **** 0.0
37584 H 13.6233 14.689 15.4213 H 0.0 **** 0.0
37585 H 13.7039 14.3886 17.1462 H 0.0 **** 0.0
37586 H 9.71527 17.6379 17.3623 H 0.0 **** 0.0
37587 H 10.8314 17.6511 18.8143 H 0.0 **** 0.0
37588 H 11.2318 18.5614 15.9203 H 0.0 **** 0.0
37589 H 13.3116 18.5968 18.1735 H 0.0 **** 0.0
37590 H 13.5158 19.4367 16.6282 H 0.0 **** 0.0
37591 H 14.5492 17.0535 16.7115 H 0.0 **** 0.0
37592 H 13.4283 17.4271 15.3167 H 0.0 **** 0.0
37593 H 11.7615 15.2955 20.3144 H 0.0 **** 0.0
37594 H 14.7176 15.9617 24.6883 H 0.0 **** 0.0
37595 H 16.2036 15.3315 26.6737 H 0.0 **** 0.0
37596 H 8.34515 13.6564 27.2795 H 0.0 **** 0.0
37597 H 19.3391 13.9921 31.8701 H 0.0 **** 0.0
37598 H 19.296 15.4669 30.1647 H 0.0 **** 0.0
37599 H 18.4236 13.4688 28.0009 H 0.0 **** 0.0
37600 H 20.8285 13.5757 28.2167 H 0.0 **** 0.0
37601 H 21.0502 15.3428 28.428 H 0.0 **** 0.0
37602 H 21.8132 15.008 30.7223 H 0.0 **** 0.0
37603 H 22.8851 14.2481 29.4595 H 0.0 **** 0.0
37604 H 22.1758 12.0513 29.8538 H 0.0 **** 0.0
37605 H 19.937 11.6171 29.9917 H 0.0 **** 0.0
37606 H 20.0102 12.0335 33.1088 H 0.0 **** 0.0
37607 H 19.3587 10.725 32.0277 H 0.0 **** 0.0
37608 H 21.563 9.81664 31.5386 H 0.0 **** 0.0
37609 H 21.3039 9.92315 33.3482 H 0.0 **** 0.0
37610 H 23.5535 10.9063 32.0269 H 0.0 **** 0.0
37611 H 23.0281 11.5255 33.5313 H 0.0 **** 0.0
37612 H 22.1642 13.4142 32.4973 H 0.0 **** 0.0
37613 H 8.4203 11.2096 31.7373 H 0.0 **** 0.0
37614 H 7.35236 10.981 29.5527 H 0.0 **** 0.0
37615 H 6.6634 14.0129 29.7771 H 0.0 **** 0.0
37616 H 6.31494 12.8439 28.4176 H 0.0 **** 0.0
37617 H 4.40158 12.1635 29.3994 H 0.0 **** 0.0
37618 H 4.60119 13.4401 30.6571 H 0.0 **** 0.0
37619 H 5.53544 10.5169 30.8618 H 0.0 **** 0.0
37620 H 4.3183 11.3442 31.8331 H 0.0 **** 0.0
37621 H 6.57143 10.9673 32.936 H 0.0 **** 0.0
37622 H 6.1569 12.6911 32.8965 H 0.0 **** 0.0
37623 H 10.0315 14.3708 34.0161 H 0.0 **** 0.0
37624 H 11.4344 14.1858 36.1118 H 0.0 **** 0.0
37625 H 17.4502 14.5794 33.519 H 0.0 **** 0.0
37626 H 19.1679 12.3442 35.6156 H 0.0 **** 0.0
37627 H 18.5684 12.3592 37.7581 H 0.0 **** 0.0
37628 H 19.6305 15.2133 37.7999 H 0.0 **** 0.0
37629 H 21.2685 12.7348 37.2168 H 0.0 **** 0.0
37630 H 21.9813 14.3344 37.6869 H 0.0 **** 0.0
37631 H 21.5414 13.5955 35.1712 H 0.0 **** 0.0
37632 H 21.4605 15.2554 35.7314 H 0.0 **** 0.0
37633 H 19.5761 14.3747 34.1366 H 0.0 **** 0.0
37634 H 19.0888 15.4259 35.5741 H 0.0 **** 0.0
37635 H 9.80627 19.9931 17.1963 H 0.0 **** 0.0
37636 H 10.7427 21.5767 18.9042 H 0.0 **** 0.0
37637 H 12.347 20.8277 18.8461 H 0.0 **** 0.0
37638 H 10.9034 19.8019 19.4731 H 0.0 **** 0.0
37639 H 11.3466 20.8778 15.2489 H 0.0 **** 0.0
37640 H 12.4334 21.5456 16.5208 H 0.0 **** 0.0
37641 H 10.7884 22.141 16.4085 H 0.0 **** 0.0
37642 H 18.8845 15.4013 27.0925 H 0.0 **** 0.0
37643 H 12.6744 13.3003 39.7733 H 0.0 **** 0.0
37644 H 12.6226 14.1298 42.114 H 0.0 **** 0.0
37645 H 13.6779 15.1554 44.1527 H 0.0 **** 0.0
37646 H 14.8433 15.9836 46.164 H 0.0 **** 0.0
37647 H 16.9447 16.6965 47.3539 H 0.0 **** 0.0
37648 H 21.4229 17.7677 45.8889 H 0.0 **** 0.0
37649 H 19.272 17.7863 47.0798 H 0.0 **** 0.0
37650 H 21.9672 13.9568 40.0143 H 0.0 **** 0.0
37651 H 23.1897 13.432 42.4278 H 0.0 **** 0.0
37652 H 23.9211 14.4353 41.1686 H 0.0 **** 0.0
37653 H 25.6083 14.3518 42.8666 H 0.0 **** 0.0
37654 H 24.3828 14.1528 44.216 H 0.0 **** 0.0
37655 H 25.1382 16.766 42.772 H 0.0 **** 0.0
37656 H 25.3791 16.3811 44.5313 H 0.0 **** 0.0
37657 C 42.2083 52.0021 28.4638 C 0.0 **** 0.0
37658 C 42.5204 51.4499 29.8617 C 0.0 **** 0.0
37659 C 43.0884 52.5943 30.7269 C 0.0 **** 0.0
37660 C 44.3577 53.2144 30.0705 C 0.0 **** 0.0
37661 C 44.4029 52.8558 28.5934 C 0.0 **** 0.0
37662 O 43.135 52.972 28.021 O 0.0 **** 0.0
37663 C 45.7364 53.0484 30.8501 C 0.0 **** 0.0
37664 C 45.6152 53.5018 32.3411 C 0.0 **** 0.0
37665 C 44.2535 53.0973 32.9781 C 0.0 **** 0.0
37666 C 43.4028 52.1044 32.1562 C 0.0 **** 0.0
37667 O 45.7055 54.932 32.4454 O 0.0 **** 0.0
37668 C 46.9196 55.5421 31.9193 C 0.0 **** 0.0
37669 C 47.1032 55.1992 30.3811 C 0.0 **** 0.0
37670 C 47.0031 53.7035 30.1909 C 0.0 **** 0.0
37671 C 48.42 55.8091 29.8947 C 0.0 **** 0.0
37672 C 49.6537 55.5841 30.6827 C 0.0 **** 0.0
37673 C 49.4445 55.8298 32.1731 C 0.0 **** 0.0
37674 C 48.1668 55.2184 32.7756 C 0.0 **** 0.0
37675 C 50.7283 55.5039 32.9675 C 0.0 **** 0.0
37676 C 51.9138 56.2596 32.4639 C 0.0 **** 0.0
37677 C 52.1155 56.2722 30.9648 C 0.0 **** 0.0
37678 C 50.7766 56.5687 30.2166 C 0.0 **** 0.0
37679 C 50.942 56.3603 28.6875 C 0.0 **** 0.0
37680 C 49.707 56.836 27.9251 C 0.0 **** 0.0
37681 C 48.4302 56.4278 28.6147 C 0.0 **** 0.0
37682 O 53.1452 57.2821 30.7127 O 0.0 **** 0.0
37683 C 54.2822 57.3832 31.6289 C 0.0 **** 0.0
37684 C 54.4032 56.0909 32.4306 C 0.0 **** 0.0
37685 C 53.1042 55.5971 33.1241 C 0.0 **** 0.0
37686 C 48.1207 55.722 34.2021 C 0.0 **** 0.0
37687 C 49.3013 55.2414 35.0153 C 0.0 **** 0.0
37688 C 50.5635 55.8872 34.4559 C 0.0 **** 0.0
37689 C 49.1593 55.6358 36.4867 C 0.0 **** 0.0
37690 C 48.6752 56.8744 36.7942 C 0.0 **** 0.0
37691 C 47.9344 57.6778 35.8167 C 0.0 **** 0.0
37692 C 47.5289 56.8683 34.5891 C 0.0 **** 0.0
37693 C 48.6446 57.2293 38.2502 C 0.0 **** 0.0
37694 C 49.8277 56.6573 39.0445 C 0.0 **** 0.0
37695 C 50.0192 55.1931 38.7802 C 0.0 **** 0.0
37696 C 49.7144 54.6863 37.5631 C 0.0 **** 0.0
37697 C 49.7373 53.2011 37.2818 C 0.0 **** 0.0
37698 C 49.9728 52.3371 38.4753 C 0.0 **** 0.0
37699 C 51.0828 52.9352 39.3186 C 0.0 **** 0.0
37700 C 50.694 54.3632 39.8088 C 0.0 **** 0.0
37701 C 53.1576 55.9437 34.6289 C 0.0 **** 0.0
37702 C 51.8352 55.5173 35.2994 C 0.0 **** 0.0
37703 C 55.7092 55.8316 33.1541 C 0.0 **** 0.0
37704 C 55.5971 54.6058 34.0273 C 0.0 **** 0.0
37705 S 54.4362 54.9713 35.4841 S 0.0 **** 0.0
37706 C 56.9718 54.1401 34.5181 C 0.0 **** 0.0
37707 C 57.8892 53.8111 33.335 C 0.0 **** 0.0
37708 C 58.0798 55.1467 32.5588 C 0.0 **** 0.0
37709 C 56.7524 55.7015 32.047 C 0.0 **** 0.0
37710 C 59.0845 55.0488 31.3493 C 0.0 **** 0.0
37711 C 60.3929 54.5802 31.9502 C 0.0 **** 0.0
37712 C 60.2291 53.1726 32.5294 C 0.0 **** 0.0
37713 C 59.2427 53.3411 33.7603 C 0.0 **** 0.0
37714 C 61.5293 52.4244 33.0264 C 0.0 **** 0.0
37715 C 62.7898 52.8197 32.1817 C 0.0 **** 0.0
37716 C 62.8984 54.2959 31.675 C 0.0 **** 0.0
37717 C 61.5612 54.6314 30.9608 C 0.0 **** 0.0
37718 C 56.8378 57.0839 31.3527 C 0.0 **** 0.0
37719 C 55.5194 57.4814 30.7032 C 0.0 **** 0.0
37720 C 59.3038 56.5179 30.8069 C 0.0 **** 0.0
37721 C 57.985 57.1914 30.3058 C 0.0 **** 0.0
37722 C 61.6655 56.0581 30.3576 C 0.0 **** 0.0
37723 C 60.3246 56.3883 29.7376 C 0.0 **** 0.0
37724 C 64.0908 54.4296 30.6783 C 0.0 **** 0.0
37725 C 64.1001 55.693 29.8842 C 0.0 **** 0.0
37726 C 62.7342 56.0092 29.3208 C 0.0 **** 0.0
37727 O 63.1274 51.9242 31.1166 O 0.0 **** 0.0
37728 C 61.988 51.4281 30.5087 C 0.0 **** 0.0
37729 C 61.3428 50.3669 31.3817 C 0.0 **** 0.0
37730 C 61.4771 50.8706 32.8772 C 0.0 **** 0.0
37731 C 62.0383 48.985 31.1503 C 0.0 **** 0.0
37732 C 61.9012 48.5934 29.7065 C 0.0 **** 0.0
37733 C 62.5927 49.5743 28.7559 C 0.0 **** 0.0
37734 C 62.3204 51.0563 29.0678 C 0.0 **** 0.0
37735 C 61.3208 51.7045 28.0435 C 0.0 **** 0.0
37736 C 61.9387 51.5772 26.6785 C 0.0 **** 0.0
37737 C 62.698 50.2734 26.4201 C 0.0 **** 0.0
37738 N 62.3301 49.1801 27.3725 N 0.0 **** 0.0
37739 C 57.7917 56.9704 28.8088 C 0.0 **** 0.0
37740 C 58.9311 57.7201 28.1055 C 0.0 **** 0.0
37741 C 60.2737 57.5904 28.7924 C 0.0 **** 0.0
37742 O 58.9081 57.4222 26.7073 O 0.0 **** 0.0
37743 C 57.726 57.986 26.2422 C 0.0 **** 0.0
37744 C 56.4822 57.351 26.9519 C 0.0 **** 0.0
37745 O 56.5565 57.4133 28.35 O 0.0 **** 0.0
37746 C 56.2074 55.9074 26.5311 C 0.0 **** 0.0
37747 C 56.6001 55.5702 25.0836 C 0.0 **** 0.0
37748 C 56.6777 56.8088 24.1853 C 0.0 **** 0.0
37749 C 57.6693 57.9009 24.7086 C 0.0 **** 0.0
37750 C 62.7971 57.2612 28.4332 C 0.0 **** 0.0
37751 C 61.4195 57.4571 27.8189 C 0.0 **** 0.0
37752 C 65.1511 55.5937 28.7654 C 0.0 **** 0.0
37753 C 65.1318 56.8754 27.9551 C 0.0 **** 0.0
37754 C 63.7772 57.1026 27.2941 C 0.0 **** 0.0
37755 C 66.5548 55.4539 29.4606 C 0.0 **** 0.0
37756 C 66.6371 54.2356 30.4363 C 0.0 **** 0.0
37757 C 65.4728 54.3131 31.4318 C 0.0 **** 0.0
37758 O 66.1339 56.8125 26.9707 O 0.0 **** 0.0
37759 C 67.422 56.748 27.595 C 0.0 **** 0.0
37760 C 67.5854 55.4 28.3655 C 0.0 **** 0.0
37761 C 68.0101 54.1988 31.1654 C 0.0 **** 0.0
37762 C 69.1521 54.1691 30.0996 C 0.0 **** 0.0
37763 C 68.9547 55.3301 29.0052 C 0.0 **** 0.0
37764 C 69.3037 52.7772 29.4878 C 0.0 **** 0.0
37765 C 69.5812 51.6969 30.6086 C 0.0 **** 0.0
37766 C 69.4994 52.2451 32.0514 C 0.0 **** 0.0
37767 C 68.1325 52.9733 32.1436 C 0.0 **** 0.0
37768 C 70.018 55.2552 27.9382 C 0.0 **** 0.0
37769 C 69.8586 56.4203 26.8974 C 0.0 **** 0.0
37770 C 68.4685 56.8767 26.5458 C 0.0 **** 0.0
37771 C 70.3973 52.7785 28.3987 C 0.0 **** 0.0
37772 C 70.1007 53.8837 27.3011 C 0.0 **** 0.0
37773 C 49.9941 50.7564 38.097 C 0.0 **** 0.0
37774 C 51.1435 50.3696 37.1649 C 0.0 **** 0.0
37775 C 50.1491 49.903 39.3692 C 0.0 **** 0.0
37776 O 60.441 50.4523 33.6593 O 0.0 **** 0.0
37777 C 68.4586 58.2843 25.8716 C 0.0 **** 0.0
37778 C 69.2804 58.1341 24.5677 C 0.0 **** 0.0
37779 C 70.6763 57.5896 24.8036 C 0.0 **** 0.0
37780 C 70.4104 56.2028 25.5201 C 0.0 **** 0.0
37781 C 71.5667 55.2648 25.5766 C 0.0 **** 0.0
37782 C 72.1322 55.1117 24.1879 C 0.0 **** 0.0
37783 C 72.6476 56.4553 23.7438 C 0.0 **** 0.0
37784 C 71.5411 57.4739 23.5706 C 0.0 **** 0.0
37785 C 73.396 56.2744 22.4328 C 0.0 **** 0.0
37786 C 74.57 55.2566 22.5312 C 0.0 **** 0.0
37787 C 73.9983 53.9236 22.9703 C 0.0 **** 0.0
37788 C 73.2246 54.0243 24.2825 C 0.0 **** 0.0
37789 C 72.499 52.7029 24.5568 C 0.0 **** 0.0
37790 C 71.9714 52.7223 25.9547 C 0.0 **** 0.0
37791 C 71.0138 53.8981 26.0397 C 0.0 **** 0.0
37792 C 73.4743 51.5189 24.4728 C 0.0 **** 0.0
37793 C 74.2675 51.4443 23.1466 C 0.0 **** 0.0
37794 C 74.962 52.7675 22.9231 C 0.0 **** 0.0
37795 C 70.4419 51.4328 27.6721 C 0.0 **** 0.0
37796 C 71.2501 51.4322 26.3113 C 0.0 **** 0.0
37797 C 72.8378 50.1186 24.8283 C 0.0 **** 0.0
37798 C 72.1973 50.2185 26.1801 C 0.0 **** 0.0
37799 C 71.4997 48.928 26.5362 C 0.0 **** 0.0
37800 C 70.3276 48.6429 25.5707 C 0.0 **** 0.0
37801 C 70.4644 49.2876 24.1921 C 0.0 **** 0.0
37802 C 71.8655 49.5443 23.7895 C 0.0 **** 0.0
37803 O 72.0961 49.4971 22.6023 O 0.0 **** 0.0
37804 H 41.2496 52.4977 28.5928 H 0.0 **** 0.0
37805 H 42.1863 51.1831 27.6398 H 0.0 **** 0.0
37806 H 41.5538 51.116 30.2892 H 0.0 **** 0.0
37807 H 43.202 50.5605 29.8406 H 0.0 **** 0.0
37808 H 42.2937 53.4171 30.7664 H 0.0 **** 0.0
37809 H 44.1523 54.28 30.1016 H 0.0 **** 0.0
37810 H 44.816 51.8617 28.4134 H 0.0 **** 0.0
37811 H 45.0482 53.5814 28.0432 H 0.0 **** 0.0
37812 H 45.9548 51.9726 30.7893 H 0.0 **** 0.0
37813 H 46.3869 52.966 32.9428 H 0.0 **** 0.0
37814 H 43.6251 53.9948 33.0828 H 0.0 **** 0.0
37815 H 44.4058 52.6728 33.9952 H 0.0 **** 0.0
37816 H 42.4746 51.8801 32.7444 H 0.0 **** 0.0
37817 H 43.9005 51.1437 32.0716 H 0.0 **** 0.0
37818 H 46.7016 56.6062 31.9571 H 0.0 **** 0.0
37819 H 46.2663 55.6273 29.8262 H 0.0 **** 0.0
37820 H 47.8516 53.1663 30.6844 H 0.0 **** 0.0
37821 H 47.0536 53.3896 29.126 H 0.0 **** 0.0
37822 H 48.3028 54.1374 32.8296 H 0.0 **** 0.0
37823 H 51.8614 56.9063 28.3701 H 0.0 **** 0.0
37824 H 51.1053 55.2937 28.4599 H 0.0 **** 0.0
37825 H 49.7216 56.5433 26.8681 H 0.0 **** 0.0
37826 H 49.7557 57.9605 27.8888 H 0.0 **** 0.0
37827 H 47.5076 56.5132 28.0893 H 0.0 **** 0.0
37828 H 49.3873 54.1443 34.9396 H 0.0 **** 0.0
37829 H 48.5492 58.561 35.4568 H 0.0 **** 0.0
37830 H 47.0388 58.0703 36.3361 H 0.0 **** 0.0
37831 H 46.6744 57.2014 34.0386 H 0.0 **** 0.0
37832 H 48.5896 58.3546 38.428 H 0.0 **** 0.0
37833 H 47.7028 56.7783 38.7402 H 0.0 **** 0.0
37834 H 49.7282 56.8135 40.1625 H 0.0 **** 0.0
37835 H 50.7455 57.1293 38.6975 H 0.0 **** 0.0
37836 H 48.8144 52.8738 36.7304 H 0.0 **** 0.0
37837 H 50.6072 53.0747 36.5988 H 0.0 **** 0.0
37838 H 49.0866 52.4475 39.1388 H 0.0 **** 0.0
37839 H 52.0503 52.9485 38.7886 H 0.0 **** 0.0
37840 H 51.2314 52.2714 40.2029 H 0.0 **** 0.0
37841 H 51.673 54.8439 40.1602 H 0.0 **** 0.0
37842 H 50.0747 54.3516 40.7439 H 0.0 **** 0.0
37843 H 51.7791 55.827 36.3609 H 0.0 **** 0.0
37844 H 56.8196 53.2883 35.229 H 0.0 **** 0.0
37845 H 59.1261 52.4188 34.3347 H 0.0 **** 0.0
37846 H 55.5003 58.4537 30.1813 H 0.0 **** 0.0
37847 H 61.2496 52.2867 30.4199 H 0.0 **** 0.0
37848 H 60.2751 50.2511 31.1389 H 0.0 **** 0.0
37849 H 62.4307 50.485 33.2754 H 0.0 **** 0.0
37850 H 63.1152 49.0238 31.4417 H 0.0 **** 0.0
37851 H 61.6045 48.2309 31.7428 H 0.0 **** 0.0
37852 H 60.8053 48.5061 29.4888 H 0.0 **** 0.0
37853 H 62.3583 47.598 29.5835 H 0.0 **** 0.0
37854 H 63.6283 49.4554 28.9033 H 0.0 **** 0.0
37855 H 63.3018 51.6362 28.8537 H 0.0 **** 0.0
37856 H 60.3536 51.194 28.1475 H 0.0 **** 0.0
37857 H 61.1278 52.7441 28.2472 H 0.0 **** 0.0
37858 H 62.6696 52.4295 26.6002 H 0.0 **** 0.0
37859 H 61.0806 51.6768 26.0451 H 0.0 **** 0.0
37860 H 63.8015 50.4892 26.4758 H 0.0 **** 0.0
37861 H 62.4975 49.9196 25.4176 H 0.0 **** 0.0
37862 H 61.325 49.0249 27.2279 H 0.0 **** 0.0
37863 H 57.7475 59.1131 26.4797 H 0.0 **** 0.0
37864 H 55.6046 57.9727 26.6619 H 0.0 **** 0.0
37865 H 56.7374 55.1937 27.2006 H 0.0 **** 0.0
37866 H 55.1377 55.6823 26.6986 H 0.0 **** 0.0
37867 H 55.8709 54.8599 24.6527 H 0.0 **** 0.0
37868 H 57.612 55.0453 25.1277 H 0.0 **** 0.0
37869 H 55.6755 57.2989 24.1086 H 0.0 **** 0.0
37870 H 56.8945 56.4352 23.1785 H 0.0 **** 0.0
37871 H 57.3997 58.8897 24.3059 H 0.0 **** 0.0
37872 H 58.7559 57.6669 24.4007 H 0.0 **** 0.0
37873 H 61.2312 56.5862 27.147 H 0.0 **** 0.0
37874 H 63.7729 58.0454 26.725 H 0.0 **** 0.0
37875 H 65.5784 55.1155 32.2065 H 0.0 **** 0.0
37876 H 68.1454 55.1047 31.7814 H 0.0 **** 0.0
37877 H 70.1227 54.3577 30.6195 H 0.0 **** 0.0
37878 H 68.3545 52.5249 28.9682 H 0.0 **** 0.0
37879 H 70.5509 51.1647 30.3979 H 0.0 **** 0.0
37880 H 68.8436 50.9348 30.4787 H 0.0 **** 0.0
37881 H 70.3566 52.9764 32.2065 H 0.0 **** 0.0
37882 H 69.5898 51.3973 32.8159 H 0.0 **** 0.0
37883 H 67.9574 53.3419 33.2058 H 0.0 **** 0.0
37884 H 67.2946 52.254 31.9049 H 0.0 **** 0.0
37885 H 49.0022 50.4666 37.6265 H 0.0 **** 0.0
37886 H 50.9917 50.7761 36.1596 H 0.0 **** 0.0
37887 H 51.205 49.2731 37.0078 H 0.0 **** 0.0
37888 H 52.1978 50.5687 37.5816 H 0.0 **** 0.0
37889 H 49.4864 50.2112 40.1842 H 0.0 **** 0.0
37890 H 51.2239 49.818 39.6902 H 0.0 **** 0.0
37891 H 49.77 48.877 39.197 H 0.0 **** 0.0
37892 H 60.7288 50.5371 34.6077 H 0.0 **** 0.0
37893 H 67.3877 58.5637 25.612 H 0.0 **** 0.0
37894 H 69.3712 59.0964 23.9965 H 0.0 **** 0.0
37895 H 71.9652 58.4531 23.323 H 0.0 **** 0.0
37896 H 73.7914 57.2734 22.0124 H 0.0 **** 0.0
37897 H 74.9639 55.1171 21.5211 H 0.0 **** 0.0
37898 H 75.0279 50.6501 23.2335 H 0.0 **** 0.0
37899 H 75.6286 52.7255 22.0526 H 0.0 **** 0.0
37900 H 69.4001 51.2363 27.4113 H 0.0 **** 0.0
37901 H 72.2438 48.092 26.3636 H 0.0 **** 0.0
37902 H 71.1314 48.9604 27.5897 H 0.0 **** 0.0
37903 H 69.3881 48.9888 26.1146 H 0.0 **** 0.0
37904 H 70.2124 47.5318 25.4731 H 0.0 **** 0.0
37905 H 69.9849 50.2917 24.2138 H 0.0 **** 0.0
37906 H 70.0144 48.631 23.4426 H 0.0 **** 0.0
37907 C 21.0199 3.1659 85.3356 C 0.0 **** 0.0
37908 C 20.4619 3.23459 83.8887 C 0.0 **** 0.0
37909 C 21.569 3.60204 82.943 C 0.0 **** 0.0
37910 C 22.2099 4.97513 83.3876 C 0.0 **** 0.0
37911 C 22.0936 5.11743 84.9529 C 0.0 **** 0.0
37912 O 22.2067 3.85015 85.5343 O 0.0 **** 0.0
37913 C 21.6737 6.18222 82.5615 C 0.0 **** 0.0
37914 C 21.9158 5.98667 81.0248 C 0.0 **** 0.0
37915 C 21.8537 4.52244 80.5433 C 0.0 **** 0.0
37916 C 20.9892 3.69364 81.4864 C 0.0 **** 0.0
37917 O 23.1852 6.44752 80.6415 O 0.0 **** 0.0
37918 C 23.4599 7.80899 80.8967 C 0.0 **** 0.0
37919 C 23.4857 8.01916 82.4063 C 0.0 **** 0.0
37920 C 22.1509 7.56912 83.0309 C 0.0 **** 0.0
37921 C 23.7495 9.49552 82.6488 C 0.0 **** 0.0
37922 C 22.942 10.4978 81.982 C 0.0 **** 0.0
37923 C 22.8247 10.2346 80.4848 C 0.0 **** 0.0
37924 C 22.4887 8.74793 80.2 C 0.0 **** 0.0
37925 C 21.7522 11.1389 79.8691 C 0.0 **** 0.0
37926 C 22.0799 12.6088 80.1267 C 0.0 **** 0.0
37927 C 22.4297 12.9435 81.5867 C 0.0 **** 0.0
37928 C 23.4695 11.9262 82.142 C 0.0 **** 0.0
37929 C 23.7639 12.2026 83.6182 C 0.0 **** 0.0
37930 C 24.8166 11.247 84.1568 C 0.0 **** 0.0
37931 C 24.6017 9.83304 83.6996 C 0.0 **** 0.0
37932 O 22.9095 14.2841 81.641 O 0.0 **** 0.0
37933 C 21.8347 15.1678 81.1878 C 0.0 **** 0.0
37934 C 21.386 14.8904 79.733 C 0.0 **** 0.0
37935 C 20.8833 13.4791 79.7087 C 0.0 **** 0.0
37936 C 22.4046 8.6278 78.6933 C 0.0 **** 0.0
37937 C 21.2295 9.38778 78.1247 C 0.0 **** 0.0
37938 C 21.4934 10.8773 78.3626 C 0.0 **** 0.0
37939 C 21.0008 9.14367 76.6413 C 0.0 **** 0.0
37940 C 22.051 8.78455 75.857 C 0.0 **** 0.0
37941 C 23.3319 8.2865 76.3966 C 0.0 **** 0.0
37942 C 23.4097 8.1738 77.9178 C 0.0 **** 0.0
37943 C 21.8943 8.68049 74.3384 C 0.0 **** 0.0
37944 C 20.861 9.72145 73.8471 C 0.0 **** 0.0
37945 C 19.5953 9.68719 74.6727 C 0.0 **** 0.0
37946 C 19.6622 9.4431 75.9832 C 0.0 **** 0.0
37947 C 18.3753 9.19234 76.7537 C 0.0 **** 0.0
37948 C 17.1099 8.97587 75.8358 C 0.0 **** 0.0
37949 C 17.0296 10.0039 74.7347 C 0.0 **** 0.0
37950 C 18.3037 9.85769 73.8745 C 0.0 **** 0.0
37951 C 20.3683 13.1707 78.2796 C 0.0 **** 0.0
37952 C 20.2271 11.685 78.017 C 0.0 **** 0.0
37953 C 20.1661 15.782 79.3782 C 0.0 **** 0.0
37954 C 19.6887 15.5015 77.9207 C 0.0 **** 0.0
37955 S 18.7259 13.9465 77.9042 S 0.0 **** 0.0
37956 C 18.9045 16.6049 77.1821 C 0.0 **** 0.0
37957 C 18.2602 17.5136 78.1705 C 0.0 **** 0.0
37958 C 19.3402 18.1828 79.0515 C 0.0 **** 0.0
37959 C 20.4678 17.2434 79.5955 C 0.0 **** 0.0
37960 C 18.8055 19.1985 80.0405 C 0.0 **** 0.0
37961 C 18.0225 20.2515 79.234 C 0.0 **** 0.0
37962 C 16.8543 19.5509 78.4389 C 0.0 **** 0.0
37963 C 17.531 18.613 77.4411 C 0.0 **** 0.0
37964 C 16.0425 20.5724 77.6583 C 0.0 **** 0.0
37965 C 15.5896 21.7979 78.4672 C 0.0 **** 0.0
37966 C 16.7452 22.4175 79.2505 C 0.0 **** 0.0
37967 C 17.5248 21.3988 80.0813 C 0.0 **** 0.0
37968 C 20.9989 17.5614 81.0009 C 0.0 **** 0.0
37969 C 22.235 16.6431 81.3073 C 0.0 **** 0.0
37970 C 19.8827 19.8492 80.9808 C 0.0 **** 0.0
37971 C 21.2485 19.0954 80.9718 C 0.0 **** 0.0
37972 C 18.6576 22.0397 80.936 C 0.0 **** 0.0
37973 C 20.0285 21.3541 80.8287 C 0.0 **** 0.0
37974 C 16.2913 23.5903 80.1694 C 0.0 **** 0.0
37975 C 17.4527 24.3521 80.8341 C 0.0 **** 0.0
37976 C 18.7862 23.5831 80.7018 C 0.0 **** 0.0
37977 O 15.1403 22.7456 77.5321 O 0.0 **** 0.0
37978 C 13.8752 22.4316 77.0454 C 0.0 **** 0.0
37979 C 13.6623 20.9365 76.712 C 0.0 **** 0.0
37980 C 14.9721 20.1173 76.623 C 0.0 **** 0.0
37981 C 12.7917 20.6703 75.4557 C 0.0 **** 0.0
37982 C 11.6165 21.6197 75.3925 C 0.0 **** 0.0
37983 C 12.0829 23.0836 75.2171 C 0.0 **** 0.0
37984 C 13.4944 23.3823 75.843 C 0.0 **** 0.0
37985 C 13.5634 24.9122 76.2603 C 0.0 **** 0.0
37986 C 12.6935 25.8079 75.3657 C 0.0 **** 0.0
37987 C 11.2157 25.4188 75.4752 C 0.0 **** 0.0
37988 N 11.0655 23.978 75.7846 N 0.0 **** 0.0
37989 C 22.2462 19.6764 81.9411 C 0.0 **** 0.0
37990 C 22.3305 21.2293 81.9355 C 0.0 **** 0.0
37991 C 20.9985 21.9916 81.8284 C 0.0 **** 0.0
37992 O 23.0082 21.5712 83.1652 O 0.0 **** 0.0
37993 C 24.3493 21.0406 83.0968 C 0.0 **** 0.0
37994 C 24.3796 19.4902 82.803 C 0.0 **** 0.0
37995 O 23.5397 19.1431 81.7224 O 0.0 **** 0.0
37996 C 24.0467 18.5966 84.0741 C 0.0 **** 0.0
37997 C 24.7505 19.0689 85.3608 C 0.0 **** 0.0
37998 C 25.7797 20.1604 85.0983 C 0.0 **** 0.0
37999 C 25.1104 21.3478 84.3712 C 0.0 **** 0.0
38000 C 19.872 24.2964 81.5476 C 0.0 **** 0.0
38001 C 21.2104 23.4487 81.3964 C 0.0 **** 0.0
38002 C 17.588 25.7746 80.285 C 0.0 **** 0.0
38003 C 18.6751 26.5206 81.0503 C 0.0 **** 0.0
38004 C 19.9947 25.7466 81.0198 C 0.0 **** 0.0
38005 C 16.2798 26.5825 80.3973 C 0.0 **** 0.0
38006 C 15.1074 25.9481 79.6724 C 0.0 **** 0.0
38007 C 14.9924 24.3946 79.9221 C 0.0 **** 0.0
38008 O 18.8279 27.8271 80.4902 O 0.0 **** 0.0
38009 C 17.6853 28.578 80.9191 C 0.0 **** 0.0
38010 C 16.4538 28.0865 80.1366 C 0.0 **** 0.0
38011 C 13.7842 26.7278 79.9307 C 0.0 **** 0.0
38012 C 13.9024 28.2662 79.8948 C 0.0 **** 0.0
38013 C 15.1816 28.82 80.6062 C 0.0 **** 0.0
38014 C 12.7449 28.9745 80.6654 C 0.0 **** 0.0
38015 C 11.4104 28.1751 80.4989 C 0.0 **** 0.0
38016 C 11.5433 26.7668 81.0788 C 0.0 **** 0.0
38017 C 13.0137 26.2799 81.1794 C 0.0 **** 0.0
38018 C 15.2981 30.316 80.2436 C 0.0 **** 0.0
38019 C 16.5471 30.9274 80.9067 C 0.0 **** 0.0
38020 C 17.8366 30.1026 80.7449 C 0.0 **** 0.0
38021 C 12.7792 30.4362 80.2016 C 0.0 **** 0.0
38022 C 14.0701 31.1214 80.7178 C 0.0 **** 0.0
38023 C 15.8254 8.92011 76.719 C 0.0 **** 0.0
38024 C 15.2746 10.2625 77.2335 C 0.0 **** 0.0
38025 C 14.7123 8.10687 76.0749 C 0.0 **** 0.0
38026 O 14.6613 18.7456 76.7663 O 0.0 **** 0.0
38027 C 18.9445 30.7414 81.57 C 0.0 **** 0.0
38028 C 19.1509 32.2198 81.0572 C 0.0 **** 0.0
38029 C 17.8802 33.0367 81.182 C 0.0 **** 0.0
38030 C 16.729 32.3647 80.416 C 0.0 **** 0.0
38031 C 15.4306 33.1533 80.6905 C 0.0 **** 0.0
38032 C 15.5649 34.6248 80.2407 C 0.0 **** 0.0
38033 C 16.8092 35.273 80.8148 C 0.0 **** 0.0
38034 C 18.076 34.4647 80.5874 C 0.0 **** 0.0
38035 C 16.9615 36.6896 80.2709 C 0.0 **** 0.0
38036 C 15.7193 37.5445 80.5684 C 0.0 **** 0.0
38037 C 14.4039 36.8594 80.1176 C 0.0 **** 0.0
38038 C 14.3176 35.4473 80.6977 C 0.0 **** 0.0
38039 C 13.0017 34.8246 80.1447 C 0.0 **** 0.0
38040 C 12.8935 33.3628 80.6331 C 0.0 **** 0.0
38041 C 14.131 32.5436 80.2053 C 0.0 **** 0.0
38042 C 11.732 35.6081 80.531 C 0.0 **** 0.0
38043 C 11.8625 37.0775 80.0477 C 0.0 **** 0.0
38044 C 13.1635 37.7132 80.5571 C 0.0 **** 0.0
38045 C 11.5374 31.2306 80.5603 C 0.0 **** 0.0
38046 C 11.6227 32.7261 80.0645 C 0.0 **** 0.0
38047 C 10.5297 35.0066 79.8477 C 0.0 **** 0.0
38048 C 10.3489 33.5871 80.3291 C 0.0 **** 0.0
38049 C 9.07602 33.0219 79.6893 C 0.0 **** 0.0
38050 C 7.79488 33.7405 80.2069 C 0.0 **** 0.0
38051 C 8.10712 35.1371 80.7373 C 0.0 **** 0.0
38052 C 9.22117 35.7464 79.9435 C 0.0 **** 0.0
38053 O 9.07499 36.7914 79.3182 O 0.0 **** 0.0
38054 H 21.2187 2.07489 85.681 H 0.0 **** 0.0
38055 H 20.296 3.5545 86.1251 H 0.0 **** 0.0
38056 H 19.8728 2.32263 83.6678 H 0.0 **** 0.0
38057 H 19.7405 4.07331 83.7949 H 0.0 **** 0.0
38058 H 22.3453 2.78461 82.9857 H 0.0 **** 0.0
38059 H 23.2853 4.82923 83.1396 H 0.0 **** 0.0
38060 H 21.1603 5.63707 85.269 H 0.0 **** 0.0
38061 H 22.9154 5.75365 85.2962 H 0.0 **** 0.0
38062 H 20.5685 6.20843 82.7504 H 0.0 **** 0.0
38063 H 21.1136 6.50221 80.464 H 0.0 **** 0.0
38064 H 22.8553 4.07935 80.5913 H 0.0 **** 0.0
38065 H 21.479 4.50703 79.515 H 0.0 **** 0.0
38066 H 20.9945 2.63206 81.13 H 0.0 **** 0.0
38067 H 19.9275 4.02523 81.3964 H 0.0 **** 0.0
38068 H 24.5135 8.06017 80.5801 H 0.0 **** 0.0
38069 H 24.3181 7.35018 82.8136 H 0.0 **** 0.0
38070 H 21.3688 8.30924 82.8606 H 0.0 **** 0.0
38071 H 22.2583 7.66857 84.1636 H 0.0 **** 0.0
38072 H 21.4669 8.57344 80.5925 H 0.0 **** 0.0
38073 H 24.1048 13.2144 83.6826 H 0.0 **** 0.0
38074 H 22.8361 12.2079 84.2376 H 0.0 **** 0.0
38075 H 24.7249 11.2516 85.2533 H 0.0 **** 0.0
38076 H 25.8421 11.5525 83.8832 H 0.0 **** 0.0
38077 H 25.1333 9.02456 84.2153 H 0.0 **** 0.0
38078 H 20.3306 9.13986 78.6819 H 0.0 **** 0.0
38079 H 24.0969 9.04182 76.1924 H 0.0 **** 0.0
38080 H 23.6258 7.31668 75.9554 H 0.0 **** 0.0
38081 H 24.3046 7.76172 78.3686 H 0.0 **** 0.0
38082 H 22.8848 8.85069 73.8214 H 0.0 **** 0.0
38083 H 21.5698 7.67013 74.032 H 0.0 **** 0.0
38084 H 20.6946 9.61484 72.7469 H 0.0 **** 0.0
38085 H 21.3239 10.7301 74.054 H 0.0 **** 0.0
38086 H 18.4798 8.31587 77.4155 H 0.0 **** 0.0
38087 H 18.2147 10.1003 77.442 H 0.0 **** 0.0
38088 H 17.1937 7.95827 75.4833 H 0.0 **** 0.0
38089 H 16.9542 10.9869 75.2451 H 0.0 **** 0.0
38090 H 16.1814 9.72665 74.1266 H 0.0 **** 0.0
38091 H 18.3895 10.6835 73.1457 H 0.0 **** 0.0
38092 H 18.219 8.90118 73.2767 H 0.0 **** 0.0
38093 H 20.2296 11.6329 76.8876 H 0.0 **** 0.0
38094 H 19.5547 17.1878 76.5064 H 0.0 **** 0.0
38095 H 16.8551 18.1303 76.6749 H 0.0 **** 0.0
38096 H 22.5925 16.8988 82.3225 H 0.0 **** 0.0
38097 H 13.108 22.6355 77.8408 H 0.0 **** 0.0
38098 H 13.1896 20.5236 77.6408 H 0.0 **** 0.0
38099 H 15.4534 20.3627 75.6554 H 0.0 **** 0.0
38100 H 13.3771 20.7568 74.5558 H 0.0 **** 0.0
38101 H 12.3532 19.6285 75.5265 H 0.0 **** 0.0
38102 H 11.0656 21.4847 76.3578 H 0.0 **** 0.0
38103 H 10.919 21.3046 74.5596 H 0.0 **** 0.0
38104 H 12.1093 23.2956 74.1014 H 0.0 **** 0.0
38105 H 14.2557 23.1541 75.0409 H 0.0 **** 0.0
38106 H 13.2382 25.0203 77.304 H 0.0 **** 0.0
38107 H 14.6306 25.252 76.2074 H 0.0 **** 0.0
38108 H 13.1026 25.7271 74.3004 H 0.0 **** 0.0
38109 H 12.7977 26.8617 75.6653 H 0.0 **** 0.0
38110 H 10.7615 25.645 74.4527 H 0.0 **** 0.0
38111 H 10.6913 26.0394 76.2808 H 0.0 **** 0.0
38112 H 10.9945 23.8976 76.7861 H 0.0 **** 0.0
38113 H 24.9286 21.5331 82.3023 H 0.0 **** 0.0
38114 H 25.42 19.2011 82.5243 H 0.0 **** 0.0
38115 H 22.9411 18.6033 84.231 H 0.0 **** 0.0
38116 H 24.3759 17.5464 83.817 H 0.0 **** 0.0
38117 H 25.2663 18.185 85.8477 H 0.0 **** 0.0
38118 H 24.0165 19.4814 86.0806 H 0.0 **** 0.0
38119 H 26.597 19.7607 84.4931 H 0.0 **** 0.0
38120 H 26.2463 20.5148 86.0337 H 0.0 **** 0.0
38121 H 25.8893 22.1849 84.2 H 0.0 **** 0.0
38122 H 24.3902 21.8023 85.0866 H 0.0 **** 0.0
38123 H 22.0325 23.963 82.0113 H 0.0 **** 0.0
38124 H 20.7531 26.2785 81.5908 H 0.0 **** 0.0
38125 H 14.1497 23.825 79.4093 H 0.0 **** 0.0
38126 H 13.1209 26.4627 79.0913 H 0.0 **** 0.0
38127 H 13.8794 28.6095 78.8201 H 0.0 **** 0.0
38128 H 12.8811 28.9457 81.7269 H 0.0 **** 0.0
38129 H 11.1162 28.1604 79.4258 H 0.0 **** 0.0
38130 H 10.6102 28.753 81.0458 H 0.0 **** 0.0
38131 H 10.9362 26.0457 80.4478 H 0.0 **** 0.0
38132 H 11.1993 26.7524 82.161 H 0.0 **** 0.0
38133 H 13.0208 25.1596 81.2922 H 0.0 **** 0.0
38134 H 13.5942 26.6721 82.0224 H 0.0 **** 0.0
38135 H 16.16 8.30076 77.5958 H 0.0 **** 0.0
38136 H 14.5089 10.0963 78.0356 H 0.0 **** 0.0
38137 H 14.7248 10.7982 76.4143 H 0.0 **** 0.0
38138 H 16.0803 10.9135 77.5939 H 0.0 **** 0.0
38139 H 15.1209 7.17012 75.732 H 0.0 **** 0.0
38140 H 14.2804 8.71381 75.2957 H 0.0 **** 0.0
38141 H 13.9196 7.86038 76.8346 H 0.0 **** 0.0
38142 H 14.7509 18.3772 75.8519 H 0.0 **** 0.0
38143 H 18.7527 30.7056 82.6744 H 0.0 **** 0.0
38144 H 19.9565 32.6955 81.6653 H 0.0 **** 0.0
38145 H 18.9702 34.8829 81.0067 H 0.0 **** 0.0
38146 H 17.8084 37.1771 80.8498 H 0.0 **** 0.0
38147 H 15.8329 38.5091 80.0176 H 0.0 **** 0.0
38148 H 10.9591 37.7414 80.4487 H 0.0 **** 0.0
38149 H 13.226 38.7266 80.1467 H 0.0 **** 0.0
38150 H 10.7047 30.7463 80.0534 H 0.0 **** 0.0
38151 H 9.1278 33.0571 78.5725 H 0.0 **** 0.0
38152 H 8.92741 31.9765 80.0615 H 0.0 **** 0.0
38153 H 7.32024 33.1558 81.0319 H 0.0 **** 0.0
38154 H 7.08163 33.7009 79.4 H 0.0 **** 0.0
38155 H 8.34014 35.0892 81.8304 H 0.0 **** 0.0
38156 H 7.18224 35.7653 80.6731 H 0.0 **** 0.0
38157 C 65.9827 24.3335 68.6855 C 0.0 **** 0.0
38158 C 65.9434 22.9356 69.3566 C 0.0 **** 0.0
38159 C 66.9675 21.9973 68.6374 C 0.0 **** 0.0
38160 C 67.4413 22.5482 67.2677 C 0.0 **** 0.0
38161 C 66.2831 23.2815 66.5586 C 0.0 **** 0.0
38162 O 65.541 24.1949 67.3554 O 0.0 **** 0.0
38163 C 68.1763 21.5185 66.3282 C 0.0 **** 0.0
38164 C 68.7109 20.2908 67.1478 C 0.0 **** 0.0
38165 C 67.6086 19.6421 67.97 C 0.0 **** 0.0
38166 C 66.4836 20.5837 68.455 C 0.0 **** 0.0
38167 O 69.8282 20.7019 67.9362 O 0.0 **** 0.0
38168 C 70.9644 21.1593 67.1782 C 0.0 **** 0.0
38169 C 70.6212 22.4465 66.4197 C 0.0 **** 0.0
38170 C 69.3203 22.2036 65.553 C 0.0 **** 0.0
38171 C 71.7479 22.8785 65.4831 C 0.0 **** 0.0
38172 C 72.2967 21.8869 64.6163 C 0.0 **** 0.0
38173 C 72.8778 20.716 65.4806 C 0.0 **** 0.0
38174 C 71.6648 20.0774 66.264 C 0.0 **** 0.0
38175 C 73.6793 19.7039 64.6241 C 0.0 **** 0.0
38176 C 74.8119 20.399 63.8429 C 0.0 **** 0.0
38177 C 74.1561 21.4327 62.8646 C 0.0 **** 0.0
38178 C 73.2269 22.4658 63.5269 C 0.0 **** 0.0
38179 C 74.0438 23.6755 63.9142 C 0.0 **** 0.0
38180 C 73.1901 24.7209 64.5544 C 0.0 **** 0.0
38181 C 72.2132 24.1793 65.5499 C 0.0 **** 0.0
38182 O 75.007 21.9958 61.8203 O 0.0 **** 0.0
38183 C 76.3237 21.6485 62.0371 C 0.0 **** 0.0
38184 C 76.4721 20.093 61.9139 C 0.0 **** 0.0
38185 C 75.566 19.4381 62.9573 C 0.0 **** 0.0
38186 C 72.2059 18.7755 66.9494 C 0.0 **** 0.0
38187 C 72.9705 17.7742 66.0851 C 0.0 **** 0.0
38188 C 74.1994 18.5189 65.498 C 0.0 **** 0.0
38189 C 73.3403 16.498 66.8821 C 0.0 **** 0.0
38190 C 73.5318 16.5479 68.2292 C 0.0 **** 0.0
38191 C 73.2041 17.7791 68.9782 C 0.0 **** 0.0
38192 C 72.1691 18.5764 68.3006 C 0.0 **** 0.0
38193 C 74.0018 15.2984 68.9864 C 0.0 **** 0.0
38194 C 74.8302 14.4138 68.0461 C 0.0 **** 0.0
38195 C 74.097 14.1732 66.7426 C 0.0 **** 0.0
38196 C 73.3362 15.1713 66.2443 C 0.0 **** 0.0
38197 C 72.3758 14.8668 65.1402 C 0.0 **** 0.0
38198 C 72.0061 13.3693 65.1346 C 0.0 **** 0.0
38199 C 73.2929 12.5374 64.9614 C 0.0 **** 0.0
38200 C 74.4512 12.964 65.9363 C 0.0 **** 0.0
38201 C 76.1775 18.3956 63.8731 C 0.0 **** 0.0
38202 C 75.0542 17.636 64.5868 C 0.0 **** 0.0
38203 C 77.9241 19.6291 61.881 C 0.0 **** 0.0
38204 C 78.0 18.106 61.6801 C 0.0 **** 0.0
38205 S 77.2131 17.1187 63.048 S 0.0 **** 0.0
38206 C 79.4037 17.6403 61.4248 C 0.0 **** 0.0
38207 C 79.9283 18.2854 60.149 C 0.0 **** 0.0
38208 C 80.0184 19.7804 60.3986 C 0.0 **** 0.0
38209 C 78.6184 20.3609 60.6819 C 0.0 **** 0.0
38210 C 80.7118 20.5123 59.2488 C 0.0 **** 0.0
38211 C 82.0369 19.7892 58.8677 C 0.0 **** 0.0
38212 C 81.6783 18.3322 58.4809 C 0.0 **** 0.0
38213 C 81.2377 17.6615 59.7732 C 0.0 **** 0.0
38214 C 82.8962 17.6181 57.9076 C 0.0 **** 0.0
38215 C 83.6723 18.3759 56.836 C 0.0 **** 0.0
38216 C 84.0309 19.789 57.2652 C 0.0 **** 0.0
38217 C 82.744 20.5231 57.6881 C 0.0 **** 0.0
38218 C 78.7619 21.8771 61.0248 C 0.0 **** 0.0
38219 C 77.291 22.457 61.1553 C 0.0 **** 0.0
38220 C 80.9333 21.9626 59.6307 C 0.0 **** 0.0
38221 C 79.6283 22.7101 60.0198 C 0.0 **** 0.0
38222 C 83.0613 21.9279 58.2241 C 0.0 **** 0.0
38223 C 81.7899 22.7207 58.6151 C 0.0 **** 0.0
38224 C 84.6786 20.6451 56.1094 C 0.0 **** 0.0
38225 C 85.1105 22.0062 56.6519 C 0.0 **** 0.0
38226 C 83.9073 22.7489 57.2142 C 0.0 **** 0.0
38227 O 84.8098 17.5936 56.5987 O 0.0 **** 0.0
38228 C 84.4963 16.4708 55.782 C 0.0 **** 0.0
38229 C 83.0411 15.8753 56.0156 C 0.0 **** 0.0
38230 C 82.5489 16.144 57.4376 C 0.0 **** 0.0
38231 C 82.9136 14.3758 55.7433 C 0.0 **** 0.0
38232 C 83.8645 14.0215 54.617 C 0.0 **** 0.0
38233 C 85.2955 14.028 55.1434 C 0.0 **** 0.0
38234 C 85.6137 15.3519 55.8748 C 0.0 **** 0.0
38235 C 87.007 15.9352 55.4727 C 0.0 **** 0.0
38236 C 88.0231 14.7535 55.3899 C 0.0 **** 0.0
38237 C 87.5717 13.6304 54.4005 C 0.0 **** 0.0
38238 N 86.1893 13.8192 53.9634 N 0.0 **** 0.0
38239 C 79.9776 24.1617 60.4447 C 0.0 **** 0.0
38240 C 81.0492 24.8756 59.6421 C 0.0 **** 0.0
38241 C 82.2552 24.026 59.3273 C 0.0 **** 0.0
38242 O 80.5637 25.429 58.4516 O 0.0 **** 0.0
38243 C 79.5802 26.3797 58.8194 C 0.0 **** 0.0
38244 C 78.383 25.6449 59.505 C 0.0 **** 0.0
38245 O 78.8562 24.9911 60.6772 O 0.0 **** 0.0
38246 C 77.5805 24.7219 58.5114 C 0.0 **** 0.0
38247 C 77.8577 24.9723 57.0178 C 0.0 **** 0.0
38248 C 77.9433 26.4956 56.7516 C 0.0 **** 0.0
38249 C 79.1263 27.1624 57.5543 C 0.0 **** 0.0
38250 C 84.3805 24.0276 57.9202 C 0.0 **** 0.0
38251 C 83.2446 24.8428 58.4986 C 0.0 **** 0.0
38252 C 85.8096 22.8546 55.5838 C 0.0 **** 0.0
38253 C 86.2872 24.1587 56.2082 C 0.0 **** 0.0
38254 C 85.1794 24.9017 56.9556 C 0.0 **** 0.0
38255 C 86.951 22.1487 54.9671 C 0.0 **** 0.0
38256 C 86.4353 20.8706 54.3087 C 0.0 **** 0.0
38257 C 85.8446 19.9673 55.3736 C 0.0 **** 0.0
38258 O 86.7516 24.9763 55.1618 O 0.0 **** 0.0
38259 C 87.8957 24.3942 54.6081 C 0.0 **** 0.0
38260 C 87.5661 23.0806 53.8896 C 0.0 **** 0.0
38261 C 87.398 20.1311 53.3283 C 0.0 **** 0.0
38262 C 88.6462 20.9202 52.8285 C 0.0 **** 0.0
38263 C 88.771 22.4324 53.274 C 0.0 **** 0.0
38264 C 88.9654 20.7437 51.3062 C 0.0 **** 0.0
38265 C 88.7054 19.3024 50.8211 C 0.0 **** 0.0
38266 C 87.393 18.7229 51.2901 C 0.0 **** 0.0
38267 C 86.5779 19.7017 52.1134 C 0.0 **** 0.0
38268 C 89.3731 23.3776 52.2055 C 0.0 **** 0.0
38269 C 89.7741 24.7177 52.9138 C 0.0 **** 0.0
38270 C 88.5573 25.3843 53.6262 C 0.0 **** 0.0
38271 C 90.3764 21.3495 50.9687 C 0.0 **** 0.0
38272 C 90.619 22.7582 51.5502 C 0.0 **** 0.0
38273 C 70.8761 13.0828 64.09 C 0.0 **** 0.0
38274 C 71.1778 13.5712 62.6449 C 0.0 **** 0.0
38275 C 70.4814 11.6235 64.071 C 0.0 **** 0.0
38276 O 81.1836 15.8346 57.4965 O 0.0 **** 0.0
38277 C 89.0008 26.6719 54.3932 C 0.0 **** 0.0
38278 C 89.8013 27.5867 53.4459 C 0.0 **** 0.0
38279 C 91.0232 26.8314 52.9282 C 0.0 **** 0.0
38280 C 90.5547 25.6548 52.0679 C 0.0 **** 0.0
38281 C 91.7854 24.9368 51.3883 C 0.0 **** 0.0
38282 C 92.576 25.9372 50.5385 C 0.0 **** 0.0
38283 C 93.0859 27.0431 51.4835 C 0.0 **** 0.0
38284 C 91.9145 27.7979 52.1135 C 0.0 **** 0.0
38285 C 94.009 27.9692 50.7164 C 0.0 **** 0.0
38286 C 95.2355 27.2718 50.1224 C 0.0 **** 0.0
38287 C 95.1139 25.7422 50.0503 C 0.0 **** 0.0
38288 C 93.682 25.2872 49.6167 C 0.0 **** 0.0
38289 C 93.7012 23.748 49.6032 C 0.0 **** 0.0
38290 C 92.2982 23.1486 49.5276 C 0.0 **** 0.0
38291 C 91.2769 23.7255 50.6127 C 0.0 **** 0.0
38292 C 94.6336 23.2644 48.4562 C 0.0 **** 0.0
38293 C 96.0263 23.6753 48.8977 C 0.0 **** 0.0
38294 C 96.1571 25.2088 49.0644 C 0.0 **** 0.0
38295 C 90.8449 21.2054 49.5831 C 0.0 **** 0.0
38296 C 92.334 21.6243 49.5689 C 0.0 **** 0.0
38297 C 94.5256 21.72 48.1993 C 0.0 **** 0.0
38298 C 93.0733 21.1709 48.3047 C 0.0 **** 0.0
38299 C 93.1084 19.5998 48.1478 C 0.0 **** 0.0
38300 C 94.3622 18.9731 47.4654 C 0.0 **** 0.0
38301 C 94.9113 19.9007 46.3628 C 0.0 **** 0.0
38302 C 95.263 21.1974 46.955 C 0.0 **** 0.0
38303 O 96.2235 21.7946 46.5049 O 0.0 **** 0.0
38304 H 67.0085 24.767 68.7453 H 0.0 **** 0.0
38305 H 65.3084 25.0813 69.2021 H 0.0 **** 0.0
38306 H 66.1042 23.053 70.4288 H 0.0 **** 0.0
38307 H 64.8826 22.6151 69.3081 H 0.0 **** 0.0
38308 H 67.8816 21.9228 69.337 H 0.0 **** 0.0
38309 H 68.1751 23.3695 67.4769 H 0.0 **** 0.0
38310 H 65.5469 22.5126 66.2546 H 0.0 **** 0.0
38311 H 66.5854 23.7914 65.6291 H 0.0 **** 0.0
38312 H 67.4223 21.1447 65.6265 H 0.0 **** 0.0
38313 H 69.0005 19.5338 66.4211 H 0.0 **** 0.0
38314 H 68.1357 19.2682 68.8927 H 0.0 **** 0.0
38315 H 67.1627 18.7706 67.4106 H 0.0 **** 0.0
38316 H 66.1725 20.2624 69.4874 H 0.0 **** 0.0
38317 H 65.581 20.5695 67.7382 H 0.0 **** 0.0
38318 H 71.7106 21.5315 67.9502 H 0.0 **** 0.0
38319 H 70.3659 23.2636 67.1716 H 0.0 **** 0.0
38320 H 69.533 21.5566 64.6347 H 0.0 **** 0.0
38321 H 68.9935 23.1687 65.1642 H 0.0 **** 0.0
38322 H 70.9282 19.7847 65.4756 H 0.0 **** 0.0
38323 H 74.806 23.3321 64.6091 H 0.0 **** 0.0
38324 H 74.5033 24.1047 63.0016 H 0.0 **** 0.0
38325 H 72.5487 25.231 63.7918 H 0.0 **** 0.0
38326 H 73.8392 25.553 64.9639 H 0.0 **** 0.0
38327 H 71.7672 24.8857 66.3043 H 0.0 **** 0.0
38328 H 72.3201 17.4793 65.2387 H 0.0 **** 0.0
38329 H 74.1682 18.333 69.101 H 0.0 **** 0.0
38330 H 72.7536 17.4302 69.9569 H 0.0 **** 0.0
38331 H 71.5308 19.1841 68.9028 H 0.0 **** 0.0
38332 H 74.6177 15.5689 69.8879 H 0.0 **** 0.0
38333 H 73.0988 14.7144 69.3116 H 0.0 **** 0.0
38334 H 75.0567 13.4443 68.5829 H 0.0 **** 0.0
38335 H 75.8414 14.9049 67.7789 H 0.0 **** 0.0
38336 H 71.4693 15.4635 65.3656 H 0.0 **** 0.0
38337 H 72.8704 15.1975 64.1899 H 0.0 **** 0.0
38338 H 71.5537 13.1808 66.1411 H 0.0 **** 0.0
38339 H 73.6018 12.4756 63.9281 H 0.0 **** 0.0
38340 H 72.9728 11.5179 65.3282 H 0.0 **** 0.0
38341 H 75.374 13.1831 65.3549 H 0.0 **** 0.0
38342 H 74.6957 12.079 66.5785 H 0.0 **** 0.0
38343 H 75.4475 16.7324 65.1597 H 0.0 **** 0.0
38344 H 79.4358 16.5616 61.4036 H 0.0 **** 0.0
38345 H 81.2247 16.5483 59.7498 H 0.0 **** 0.0
38346 H 77.3386 23.4528 61.5808 H 0.0 **** 0.0
38347 H 84.6038 16.8082 54.7088 H 0.0 **** 0.0
38348 H 82.3674 16.3943 55.3256 H 0.0 **** 0.0
38349 H 83.1091 15.463 58.1631 H 0.0 **** 0.0
38350 H 83.2012 13.7721 56.6878 H 0.0 **** 0.0
38351 H 81.8763 14.0751 55.4483 H 0.0 **** 0.0
38352 H 83.7255 14.6713 53.7682 H 0.0 **** 0.0
38353 H 83.6495 13.0002 54.3251 H 0.0 **** 0.0
38354 H 85.4316 13.1821 55.8262 H 0.0 **** 0.0
38355 H 85.7587 15.132 57.0055 H 0.0 **** 0.0
38356 H 86.9054 16.3913 54.4495 H 0.0 **** 0.0
38357 H 87.3812 16.7176 56.2036 H 0.0 **** 0.0
38358 H 88.1519 14.2345 56.3616 H 0.0 **** 0.0
38359 H 88.9692 15.2185 55.114 H 0.0 **** 0.0
38360 H 87.7037 12.6441 54.8814 H 0.0 **** 0.0
38361 H 88.2254 13.6518 53.4553 H 0.0 **** 0.0
38362 H 86.1144 14.6367 53.3214 H 0.0 **** 0.0
38363 H 79.9961 27.1259 59.5314 H 0.0 **** 0.0
38364 H 77.6585 26.4156 59.8514 H 0.0 **** 0.0
38365 H 77.6768 23.6487 58.6993 H 0.0 **** 0.0
38366 H 76.4775 24.8825 58.6205 H 0.0 **** 0.0
38367 H 77.0014 24.5588 56.4489 H 0.0 **** 0.0
38368 H 78.7812 24.4879 56.7043 H 0.0 **** 0.0
38369 H 76.9844 26.97 57.0085 H 0.0 **** 0.0
38370 H 78.1589 26.6465 55.6854 H 0.0 **** 0.0
38371 H 78.7714 28.1389 57.8478 H 0.0 **** 0.0
38372 H 79.9705 27.3503 56.8445 H 0.0 **** 0.0
38373 H 83.5966 25.7266 59.1136 H 0.0 **** 0.0
38374 H 85.6661 25.7099 57.5383 H 0.0 **** 0.0
38375 H 85.4633 19.1473 54.8205 H 0.0 **** 0.0
38376 H 87.7135 19.1828 53.7818 H 0.0 **** 0.0
38377 H 89.4595 20.457 53.4065 H 0.0 **** 0.0
38378 H 88.1797 21.3837 50.7754 H 0.0 **** 0.0
38379 H 89.5297 18.579 51.176 H 0.0 **** 0.0
38380 H 88.6788 19.2703 49.7248 H 0.0 **** 0.0
38381 H 87.5001 17.8146 51.9338 H 0.0 **** 0.0
38382 H 86.7779 18.4593 50.4098 H 0.0 **** 0.0
38383 H 85.6197 19.2328 52.3805 H 0.0 **** 0.0
38384 H 86.2883 20.6323 51.5043 H 0.0 **** 0.0
38385 H 69.9811 13.6102 64.4629 H 0.0 **** 0.0
38386 H 70.2656 13.5749 61.9982 H 0.0 **** 0.0
38387 H 71.956 13.0141 62.0987 H 0.0 **** 0.0
38388 H 71.606 14.6175 62.5979 H 0.0 **** 0.0
38389 H 70.1982 11.2395 65.0511 H 0.0 **** 0.0
38390 H 71.248 10.9368 63.6323 H 0.0 **** 0.0
38391 H 69.5482 11.521 63.4614 H 0.0 **** 0.0
38392 H 81.1085 14.8547 57.579 H 0.0 **** 0.0
38393 H 88.1386 27.2736 54.7938 H 0.0 **** 0.0
38394 H 90.0895 28.5578 53.9285 H 0.0 **** 0.0
38395 H 92.388 28.4898 52.8559 H 0.0 **** 0.0
38396 H 94.3804 28.7887 51.4088 H 0.0 **** 0.0
38397 H 96.1488 27.5235 50.7083 H 0.0 **** 0.0
38398 H 96.8215 23.3079 48.2233 H 0.0 **** 0.0
38399 H 97.1638 25.5481 49.4003 H 0.0 **** 0.0
38400 H 90.7241 20.1663 49.2394 H 0.0 **** 0.0
38401 H 93.0038 19.0435 49.0973 H 0.0 **** 0.0
38402 H 92.1893 19.3845 47.5363 H 0.0 **** 0.0
38403 H 94.075 18.0191 47.0202 H 0.0 **** 0.0
38404 H 95.1555 18.7134 48.2255 H 0.0 **** 0.0
38405 H 94.1583 20.0242 45.5318 H 0.0 **** 0.0
38406 H 95.8024 19.4513 45.8757 H 0.0 **** 0.0
38407 C 94.1195 18.555 29.3783 C 0.0 **** 0.0
38408 C 93.917 17.1283 29.9432 C 0.0 **** 0.0
38409 C 95.0733 16.739 30.8746 C 0.0 **** 0.0
38410 C 96.4131 17.3257 30.3781 C 0.0 **** 0.0
38411 C 96.2412 18.8736 30.1655 C 0.0 **** 0.0
38412 O 94.8819 19.3084 30.27 O 0.0 **** 0.0
38413 C 97.006 16.5119 29.1826 C 0.0 **** 0.0
38414 C 96.5609 15.003 29.0626 C 0.0 **** 0.0
38415 C 96.1975 14.5036 30.471 C 0.0 **** 0.0
38416 C 95.0359 15.2306 31.1345 C 0.0 **** 0.0
38417 O 97.4972 14.0989 28.4535 O 0.0 **** 0.0
38418 C 98.2908 14.6442 27.4377 C 0.0 **** 0.0
38419 C 99.1185 15.8293 27.9192 C 0.0 **** 0.0
38420 C 98.5009 16.6336 29.1381 C 0.0 **** 0.0
38421 C 99.5178 16.785 26.794 C 0.0 **** 0.0
38422 C 98.5316 17.1913 25.7933 C 0.0 **** 0.0
38423 C 97.8907 15.9488 25.1722 C 0.0 **** 0.0
38424 C 97.3666 14.958 26.2327 C 0.0 **** 0.0
38425 C 96.7174 16.3919 24.2752 C 0.0 **** 0.0
38426 C 97.1879 17.4113 23.2095 C 0.0 **** 0.0
38427 C 97.9127 18.6242 23.8235 C 0.0 **** 0.0
38428 C 99.0826 18.1025 24.664 C 0.0 **** 0.0
38429 C 100.063 19.1806 25.1885 C 0.0 **** 0.0
38430 C 101.241 18.4244 25.8473 C 0.0 **** 0.0
38431 C 100.803 17.3177 26.7991 C 0.0 **** 0.0
38432 O 98.2963 19.5814 22.845 O 0.0 **** 0.0
38433 C 98.1714 19.1263 21.5172 C 0.0 **** 0.0
38434 C 96.6822 18.8602 21.237 C 0.0 **** 0.0
38435 C 96.0769 17.8627 22.2318 C 0.0 **** 0.0
38436 C 96.9123 13.7573 25.4307 C 0.0 **** 0.0
38437 C 95.6885 14.0372 24.6183 C 0.0 **** 0.0
38438 C 96.0822 15.1383 23.5577 C 0.0 **** 0.0
38439 C 95.1644 12.7624 23.9634 C 0.0 **** 0.0
38440 C 96.0642 11.8439 23.5253 C 0.0 **** 0.0
38441 C 97.5472 11.8949 23.8435 C 0.0 **** 0.0
38442 C 97.8129 12.881 24.9984 C 0.0 **** 0.0
38443 C 95.6645 10.6752 22.7318 C 0.0 **** 0.0
38444 C 94.3578 10.8884 21.9287 C 0.0 **** 0.0
38445 C 93.3677 11.7652 22.6797 C 0.0 **** 0.0
38446 C 93.7246 12.6218 23.6716 C 0.0 **** 0.0
38447 C 92.6938 13.4093 24.4659 C 0.0 **** 0.0
38448 C 91.345 12.6907 24.5014 C 0.0 **** 0.0
38449 C 90.8943 12.4177 23.0213 C 0.0 **** 0.0
38450 C 91.8907 11.4402 22.3763 C 0.0 **** 0.0
38451 C 95.5615 16.5776 21.551 C 0.0 **** 0.0
38452 C 94.9947 15.5587 22.5336 C 0.0 **** 0.0
38453 C 96.3992 18.5866 19.7498 C 0.0 **** 0.0
38454 C 94.9105 18.466 19.667 C 0.0 **** 0.0
38455 S 94.3425 16.8108 20.1939 S 0.0 **** 0.0
38456 C 94.3631 18.6444 18.2457 C 0.0 **** 0.0
38457 C 95.0606 19.68 17.4103 C 0.0 **** 0.0
38458 C 96.5205 19.4894 17.5178 C 0.0 **** 0.0
38459 C 96.9814 19.7398 18.9457 C 0.0 **** 0.0
38460 C 97.2369 20.307 16.4841 C 0.0 **** 0.0
38461 C 96.8329 19.7237 15.1407 C 0.0 **** 0.0
38462 C 95.3589 20.0265 14.8314 C 0.0 **** 0.0
38463 C 94.499 19.5319 15.9861 C 0.0 **** 0.0
38464 C 94.9695 19.2644 13.5669 C 0.0 **** 0.0
38465 C 95.773 19.611 12.35 C 0.0 **** 0.0
38466 C 97.2606 19.8244 12.5936 C 0.0 **** 0.0
38467 C 97.5276 20.4181 13.9919 C 0.0 **** 0.0
38468 C 98.5173 19.749 19.1557 C 0.0 **** 0.0
38469 C 98.7076 20.1847 20.6284 C 0.0 **** 0.0
38470 C 98.7705 20.2161 16.6784 C 0.0 **** 0.0
38471 C 99.1706 20.6816 18.112 C 0.0 **** 0.0
38472 C 98.6737 21.3486 14.3337 C 0.0 **** 0.0
38473 C 99.5424 20.8439 15.4937 C 0.0 **** 0.0
38474 C 98.0505 20.5153 11.4712 C 0.0 **** 0.0
38475 C 98.9255 21.7474 11.8323 C 0.0 **** 0.0
38476 C 99.6566 21.5066 13.1577 C 0.0 **** 0.0
38477 O 95.5598 18.6027 11.3846 O 0.0 **** 0.0
38478 C 94.2592 18.7161 10.8491 C 0.0 **** 0.0
38479 C 93.0792 18.7956 11.8868 C 0.0 **** 0.0
38480 C 93.497 19.4435 13.2128 C 0.0 **** 0.0
38481 C 92.4481 17.4063 12.1232 C 0.0 **** 0.0
38482 C 91.8249 16.9145 10.829 C 0.0 **** 0.0
38483 C 92.6718 17.0826 9.53609 C 0.0 **** 0.0
38484 C 94.1189 17.5109 9.8826 C 0.0 **** 0.0
38485 C 95.0273 17.7803 8.64209 C 0.0 **** 0.0
38486 C 94.3427 17.4898 7.30531 C 0.0 **** 0.0
38487 C 92.876 18.0715 7.3134 C 0.0 **** 0.0
38488 N 92.0825 17.9869 8.57168 N 0.0 **** 0.0
38489 C 100.675 21.0202 18.325 C 0.0 **** 0.0
38490 C 101.416 21.3146 17.0614 C 0.0 **** 0.0
38491 C 100.537 21.9262 15.9184 C 0.0 **** 0.0
38492 O 102.435 22.2163 17.3992 O 0.0 **** 0.0
38493 C 103.355 21.5022 18.226 C 0.0 **** 0.0
38494 C 102.637 20.7885 19.4413 C 0.0 **** 0.0
38495 O 101.434 20.109 19.0723 O 0.0 **** 0.0
38496 C 102.396 21.7738 20.6194 C 0.0 **** 0.0
38497 C 103.706 22.4023 21.0656 C 0.0 **** 0.0
38498 C 104.904 22.2306 20.0996 C 0.0 **** 0.0
38499 C 104.463 22.4967 18.6966 C 0.0 **** 0.0
38500 C 100.581 22.6501 13.4556 C 0.0 **** 0.0
38501 C 101.39 22.3126 14.7049 C 0.0 **** 0.0
38502 C 99.9249 21.9679 10.699 C 0.0 **** 0.0
38503 C 100.935 23.116 10.995 C 0.0 **** 0.0
38504 C 101.58 22.8688 12.3447 C 0.0 **** 0.0
38505 C 99.2298 22.3224 9.41442 C 0.0 **** 0.0
38506 C 98.2963 21.1892 8.98381 C 0.0 **** 0.0
38507 C 97.361 20.7288 10.1075 C 0.0 **** 0.0
38508 O 101.904 23.1654 9.98548 O 0.0 **** 0.0
38509 C 101.239 23.6307 8.84346 C 0.0 **** 0.0
38510 C 100.245 22.5694 8.32365 C 0.0 **** 0.0
38511 C 97.65 21.312 7.59199 C 0.0 **** 0.0
38512 C 98.5772 22.1143 6.5581 C 0.0 **** 0.0
38513 C 99.5718 23.1014 7.12471 C 0.0 **** 0.0
38514 C 97.7547 22.8727 5.50172 C 0.0 **** 0.0
38515 C 96.4604 22.1293 5.04729 C 0.0 **** 0.0
38516 C 95.558 21.7583 6.21277 C 0.0 **** 0.0
38517 C 96.2535 21.91 7.58868 C 0.0 **** 0.0
38518 C 100.515 23.59 6.0102 C 0.0 **** 0.0
38519 C 101.523 24.6153 6.51584 C 0.0 **** 0.0
38520 C 102.241 24.0441 7.74754 C 0.0 **** 0.0
38521 C 98.6854 23.2167 4.29644 C 0.0 **** 0.0
38522 C 99.8163 24.131 4.7486 C 0.0 **** 0.0
38523 C 90.3448 13.4591 25.4477 C 0.0 **** 0.0
38524 C 90.147 14.9457 25.1045 C 0.0 **** 0.0
38525 C 88.9912 12.6997 25.5066 C 0.0 **** 0.0
38526 O 93.1544 20.7999 13.1237 O 0.0 **** 0.0
38527 C 103.258 25.0258 8.2541 C 0.0 **** 0.0
38528 C 104.266 25.3218 7.1301 C 0.0 **** 0.0
38529 C 103.555 25.9359 5.89816 C 0.0 **** 0.0
38530 C 102.505 24.9237 5.38752 C 0.0 **** 0.0
38531 C 101.853 25.4082 4.1159 C 0.0 **** 0.0
38532 C 102.937 25.5904 3.01691 C 0.0 **** 0.0
38533 C 103.965 26.6809 3.47648 C 0.0 **** 0.0
38534 C 104.599 26.275 4.79726 C 0.0 **** 0.0
38535 C 104.985 27.0041 2.38425 C 0.0 **** 0.0
38536 C 104.208 27.4707 1.1213 C 0.0 **** 0.0
38537 C 103.277 26.32 0.687161 C 0.0 **** 0.0
38538 C 102.254 26.1152 1.78129 C 0.0 **** 0.0
38539 C 101.145 25.1194 1.30838 C 0.0 **** 0.0
38540 C 100.113 24.9115 2.38279 C 0.0 **** 0.0
38541 C 100.825 24.4103 3.62377 C 0.0 **** 0.0
38542 C 100.458 25.5713 0.0236338 C 0.0 **** 0.0
38543 C 101.53 25.676 -1.08667 C 0.0 **** 0.0
38544 C 102.69 26.5486 -0.660107 C 0.0 **** 0.0
38545 C 97.9713 23.6898 3.02553 C 0.0 **** 0.0
38546 C 98.9754 23.9307 1.91268 C 0.0 **** 0.0
38547 C 99.2473 24.7338 -0.403867 C 0.0 **** 0.0
38548 C 98.2385 24.5415 0.719407 C 0.0 **** 0.0
38549 C 97.0532 23.6628 0.149081 C 0.0 **** 0.0
38550 C 96.3609 24.2476 -1.05868 C 0.0 **** 0.0
38551 C 97.1183 25.4273 -1.71673 C 0.0 **** 0.0
38552 C 98.5664 25.1117 -1.70698 C 0.0 **** 0.0
38553 O 99.1985 25.0267 -2.7477 O 0.0 **** 0.0
38554 H 93.1323 18.9956 29.2408 H 0.0 **** 0.0
38555 H 94.5232 18.5377 28.3844 H 0.0 **** 0.0
38556 H 92.9654 17.0201 30.484 H 0.0 **** 0.0
38557 H 93.8226 16.4807 29.0368 H 0.0 **** 0.0
38558 H 94.8344 17.2685 31.8367 H 0.0 **** 0.0
38559 H 97.1532 17.1043 31.1775 H 0.0 **** 0.0
38560 H 96.6756 19.2238 29.1775 H 0.0 **** 0.0
38561 H 96.8691 19.3095 30.9779 H 0.0 **** 0.0
38562 H 96.6378 16.9758 28.2666 H 0.0 **** 0.0
38563 H 95.5758 14.9377 28.5281 H 0.0 **** 0.0
38564 H 97.143 14.5121 31.0388 H 0.0 **** 0.0
38565 H 95.8311 13.4878 30.3475 H 0.0 **** 0.0
38566 H 95.0089 14.9906 32.2316 H 0.0 **** 0.0
38567 H 94.0713 14.7278 30.8203 H 0.0 **** 0.0
38568 H 99.0699 13.8902 27.1563 H 0.0 **** 0.0
38569 H 100.038 15.3761 28.3603 H 0.0 **** 0.0
38570 H 98.7492 17.7161 29.081 H 0.0 **** 0.0
38571 H 98.9735 16.2523 30.0647 H 0.0 **** 0.0
38572 H 96.4492 15.489 26.5511 H 0.0 **** 0.0
38573 H 100.442 19.8013 24.3564 H 0.0 **** 0.0
38574 H 99.4492 19.8086 25.9329 H 0.0 **** 0.0
38575 H 101.782 19.2179 26.43 H 0.0 **** 0.0
38576 H 101.972 18.003 25.1098 H 0.0 **** 0.0
38577 H 101.526 17.0096 27.5524 H 0.0 **** 0.0
38578 H 94.9328 14.5173 25.261 H 0.0 **** 0.0
38579 H 98.0942 12.2312 22.9148 H 0.0 **** 0.0
38580 H 97.9517 10.8852 24.0707 H 0.0 **** 0.0
38581 H 98.8768 12.9233 25.2705 H 0.0 **** 0.0
38582 H 96.5392 10.4546 22.0231 H 0.0 **** 0.0
38583 H 95.5086 9.79395 23.4165 H 0.0 **** 0.0
38584 H 93.9032 9.9644 21.6191 H 0.0 **** 0.0
38585 H 94.613 11.3934 20.9548 H 0.0 **** 0.0
38586 H 93.007 13.5664 25.5047 H 0.0 **** 0.0
38587 H 92.6302 14.4421 24.0241 H 0.0 **** 0.0
38588 H 91.5816 11.7059 25.0058 H 0.0 **** 0.0
38589 H 90.8666 13.3702 22.4688 H 0.0 **** 0.0
38590 H 89.8975 11.9136 23.0 H 0.0 **** 0.0
38591 H 91.7508 11.3024 21.312 H 0.0 **** 0.0
38592 H 91.7155 10.4295 22.81 H 0.0 **** 0.0
38593 H 94.6042 14.6902 21.9858 H 0.0 **** 0.0
38594 H 93.2759 18.7214 18.2563 H 0.0 **** 0.0
38595 H 93.4888 19.9074 15.9496 H 0.0 **** 0.0
38596 H 99.7945 20.4061 20.8191 H 0.0 **** 0.0
38597 H 94.1656 19.635 10.267 H 0.0 **** 0.0
38598 H 92.2319 19.4958 11.5154 H 0.0 **** 0.0
38599 H 92.9661 18.9689 14.045 H 0.0 **** 0.0
38600 H 93.2229 16.6628 12.4714 H 0.0 **** 0.0
38601 H 91.672 17.4468 12.8649 H 0.0 **** 0.0
38602 H 90.9001 17.489 10.674 H 0.0 **** 0.0
38603 H 91.4957 15.8625 10.9536 H 0.0 **** 0.0
38604 H 92.7149 16.1223 9.03733 H 0.0 **** 0.0
38605 H 94.553 16.605 10.4288 H 0.0 **** 0.0
38606 H 95.3503 18.8172 8.55326 H 0.0 **** 0.0
38607 H 95.9618 17.1545 8.77346 H 0.0 **** 0.0
38608 H 94.2362 16.3734 7.08423 H 0.0 **** 0.0
38609 H 94.842 17.9005 6.41355 H 0.0 **** 0.0
38610 H 92.2443 17.6286 6.52119 H 0.0 **** 0.0
38611 H 92.983 19.1364 7.03757 H 0.0 **** 0.0
38612 H 91.9783 18.9335 9.02435 H 0.0 **** 0.0
38613 H 103.885 20.7883 17.549 H 0.0 **** 0.0
38614 H 103.372 20.0039 19.8302 H 0.0 **** 0.0
38615 H 101.688 22.5845 20.2535 H 0.0 **** 0.0
38616 H 101.837 21.3552 21.4745 H 0.0 **** 0.0
38617 H 103.955 22.0459 22.0828 H 0.0 **** 0.0
38618 H 103.524 23.4835 21.1839 H 0.0 **** 0.0
38619 H 105.267 21.1711 20.1404 H 0.0 **** 0.0
38620 H 105.771 22.8716 20.382 H 0.0 **** 0.0
38621 H 105.346 22.4789 17.9952 H 0.0 **** 0.0
38622 H 104.094 23.5445 18.6342 H 0.0 **** 0.0
38623 H 102.07 23.1796 14.9433 H 0.0 **** 0.0
38624 H 102.091 23.8438 12.5711 H 0.0 **** 0.0
38625 H 96.8593 19.8159 9.75262 H 0.0 **** 0.0
38626 H 97.5364 20.2308 7.30572 H 0.0 **** 0.0
38627 H 99.0722 21.2808 6.0662 H 0.0 **** 0.0
38628 H 97.3897 23.7988 5.97491 H 0.0 **** 0.0
38629 H 96.7461 21.2206 4.48051 H 0.0 **** 0.0
38630 H 95.8855 22.7687 4.36037 H 0.0 **** 0.0
38631 H 95.2512 20.6548 6.1632 H 0.0 **** 0.0
38632 H 94.6537 22.3423 6.22178 H 0.0 **** 0.0
38633 H 95.6191 21.3013 8.25453 H 0.0 **** 0.0
38634 H 96.2947 22.9603 7.98013 H 0.0 **** 0.0
38635 H 90.8217 13.4509 26.4547 H 0.0 **** 0.0
38636 H 89.1421 15.308 25.4463 H 0.0 **** 0.0
38637 H 90.1988 15.0632 24.0482 H 0.0 **** 0.0
38638 H 90.9333 15.5895 25.5877 H 0.0 **** 0.0
38639 H 89.0702 11.6103 25.6604 H 0.0 **** 0.0
38640 H 88.3701 12.9089 24.6092 H 0.0 **** 0.0
38641 H 88.4391 13.1225 26.3919 H 0.0 **** 0.0
38642 H 92.7088 21.0828 13.9575 H 0.0 **** 0.0
38643 H 102.826 26.009 8.57231 H 0.0 **** 0.0
38644 H 104.74 24.3378 6.80032 H 0.0 **** 0.0
38645 H 105.358 25.4772 4.66804 H 0.0 **** 0.0
38646 H 105.642 27.7988 2.72673 H 0.0 **** 0.0
38647 H 104.991 27.5628 0.326752 H 0.0 **** 0.0
38648 H 101.112 26.2303 -1.97703 H 0.0 **** 0.0
38649 H 103.508 26.4833 -1.49158 H 0.0 **** 0.0
38650 H 97.2542 22.8756 2.76096 H 0.0 **** 0.0
38651 H 97.4949 22.6417 -0.0798521 H 0.0 **** 0.0
38652 H 96.2522 23.4909 0.8861 H 0.0 **** 0.0
38653 H 95.3627 24.6868 -0.813789 H 0.0 **** 0.0
38654 H 96.1833 23.4692 -1.83358 H 0.0 **** 0.0
38655 H 96.9837 26.301 -1.09826 H 0.0 **** 0.0
38656 H 96.7227 25.6499 -2.77332 H 0.0 **** 0.0
38657 C 10.3268 88.8844 25.0003 C 0.0 **** 0.0
38658 C 11.6559 88.5783 24.2557 C 0.0 **** 0.0
38659 C 11.4777 88.7597 22.757 C 0.0 **** 0.0
38660 C 10.2701 87.9223 22.1683 C 0.0 **** 0.0
38661 C 9.22129 87.6578 23.3174 C 0.0 **** 0.0
38662 O 9.14715 88.7416 24.2066 O 0.0 **** 0.0
38663 C 10.677 86.5628 21.4742 C 0.0 **** 0.0
38664 C 11.9858 86.6706 20.54 C 0.0 **** 0.0
38665 C 12.516 88.1055 20.5496 C 0.0 **** 0.0
38666 C 12.7901 88.532 21.9921 C 0.0 **** 0.0
38667 O 11.8317 86.2365 19.2204 O 0.0 **** 0.0
38668 C 11.1568 85.0049 19.1972 C 0.0 **** 0.0
38669 C 9.68147 85.2481 19.4853 C 0.0 **** 0.0
38670 C 9.38379 85.9829 20.7992 C 0.0 **** 0.0
38671 C 8.89302 83.9193 19.3514 C 0.0 **** 0.0
38672 C 9.45339 82.7662 20.0302 C 0.0 **** 0.0
38673 C 10.9808 82.5738 19.7406 C 0.0 **** 0.0
38674 C 11.7463 83.8739 20.0611 C 0.0 **** 0.0
38675 C 11.5393 81.4005 20.5846 C 0.0 **** 0.0
38676 C 10.7931 80.1231 20.1611 C 0.0 **** 0.0
38677 C 9.31508 80.3039 20.4657 C 0.0 **** 0.0
38678 C 8.72182 81.466 19.6178 C 0.0 **** 0.0
38679 C 7.2341 81.5784 19.7208 C 0.0 **** 0.0
38680 C 6.75787 82.647 18.7267 C 0.0 **** 0.0
38681 C 7.64202 83.8609 18.6657 C 0.0 **** 0.0
38682 O 8.49816 79.112 20.4775 O 0.0 **** 0.0
38683 C 9.16519 77.9876 19.9318 C 0.0 **** 0.0
38684 C 10.4132 77.6289 20.6674 C 0.0 **** 0.0
38685 C 11.3009 78.8941 20.9357 C 0.0 **** 0.0
38686 C 13.2682 83.6502 19.9213 C 0.0 **** 0.0
38687 C 13.7701 82.5895 20.861 C 0.0 **** 0.0
38688 C 13.0928 81.287 20.4127 C 0.0 **** 0.0
38689 C 15.2779 82.531 20.9201 C 0.0 **** 0.0
38690 C 16.0404 82.8925 19.8322 C 0.0 **** 0.0
38691 C 15.4968 83.7359 18.7725 C 0.0 **** 0.0
38692 C 14.0562 84.1489 18.9179 C 0.0 **** 0.0
38693 C 17.4856 82.5192 19.8095 C 0.0 **** 0.0
38694 C 17.7088 81.1903 20.4916 C 0.0 **** 0.0
38695 C 17.1016 81.145 21.8703 C 0.0 **** 0.0
38696 C 15.97 81.8556 22.0836 C 0.0 **** 0.0
38697 C 15.2589 81.8106 23.3992 C 0.0 **** 0.0
38698 C 16.1136 81.2662 24.5908 C 0.0 **** 0.0
38699 C 16.7892 79.9658 24.096 C 0.0 **** 0.0
38700 C 17.6921 80.2616 22.9206 C 0.0 **** 0.0
38701 C 12.7764 78.7842 20.5772 C 0.0 **** 0.0
38702 C 13.573 80.0038 21.1177 C 0.0 **** 0.0
38703 C 11.1428 76.601 19.8405 C 0.0 **** 0.0
38704 C 12.3775 76.0666 20.5552 C 0.0 **** 0.0
38705 S 13.4419 77.3304 21.4146 S 0.0 **** 0.0
38706 C 13.1446 75.0781 19.6431 C 0.0 **** 0.0
38707 C 12.2398 73.8624 19.3666 C 0.0 **** 0.0
38708 C 10.975 74.3106 18.6705 C 0.0 **** 0.0
38709 C 10.2282 75.3614 19.5496 C 0.0 **** 0.0
38710 C 10.0414 73.0762 18.4239 C 0.0 **** 0.0
38711 C 10.7792 71.9751 17.621 C 0.0 **** 0.0
38712 C 12.1375 71.555 18.2116 C 0.0 **** 0.0
38713 C 12.9736 72.828 18.5198 C 0.0 **** 0.0
38714 C 12.8276 70.4841 17.2686 C 0.0 **** 0.0
38715 C 11.8929 69.249 17.2646 C 0.0 **** 0.0
38716 C 10.5154 69.6107 16.6123 C 0.0 **** 0.0
38717 C 9.84407 70.7541 17.3931 C 0.0 **** 0.0
38718 C 8.87656 75.7384 18.9607 C 0.0 **** 0.0
38719 C 8.22816 76.8479 19.8236 C 0.0 **** 0.0
38720 C 8.71996 73.4958 17.8193 C 0.0 **** 0.0
38721 C 8.01498 74.4816 18.8057 C 0.0 **** 0.0
38722 C 8.50083 71.2085 16.7657 C 0.0 **** 0.0
38723 C 7.78469 72.3406 17.5233 C 0.0 **** 0.0
38724 C 9.51612 68.4934 16.1736 C 0.0 **** 0.0
38725 C 8.04362 68.6638 16.6129 C 0.0 **** 0.0
38726 C 7.59213 70.0548 16.2022 C 0.0 **** 0.0
38727 O 12.5062 68.1573 16.6731 O 0.0 **** 0.0
38728 C 13.4395 67.6162 17.6083 C 0.0 **** 0.0
38729 C 14.3557 68.7561 18.2582 C 0.0 **** 0.0
38730 C 14.3377 70.0096 17.411 C 0.0 **** 0.0
38731 C 15.813 68.282 18.4288 C 0.0 **** 0.0
38732 C 15.8766 66.8323 18.8588 C 0.0 **** 0.0
38733 C 15.4118 65.9145 17.7727 C 0.0 **** 0.0
38734 C 14.2864 66.5056 16.879 C 0.0 **** 0.0
38735 C 13.4128 65.4705 16.2154 C 0.0 **** 0.0
38736 C 14.25 64.2051 15.9068 C 0.0 **** 0.0
38737 C 14.8063 63.5683 17.2155 C 0.0 **** 0.0
38738 N 15.0041 64.5894 18.2771 N 0.0 **** 0.0
38739 C 6.57044 74.858 18.4237 C 0.0 **** 0.0
38740 C 5.7616 73.7968 17.5885 C 0.0 **** 0.0
38741 C 6.54275 72.8428 16.7389 C 0.0 **** 0.0
38742 O 4.72908 73.234 18.3242 O 0.0 **** 0.0
38743 C 3.84608 74.2681 18.704 C 0.0 **** 0.0
38744 C 4.5713 75.5066 19.3204 C 0.0 **** 0.0
38745 O 5.91329 75.1652 19.6446 O 0.0 **** 0.0
38746 C 3.86533 75.9961 20.5828 C 0.0 **** 0.0
38747 C 3.62617 74.902 21.6063 C 0.0 **** 0.0
38748 C 3.32354 73.5572 21.0299 C 0.0 **** 0.0
38749 C 2.78573 73.6852 19.5916 C 0.0 **** 0.0
38750 C 6.08266 70.3114 16.5218 C 0.0 **** 0.0
38751 C 5.65113 71.7244 16.1308 C 0.0 **** 0.0
38752 C 7.15151 67.669 15.9453 C 0.0 **** 0.0
38753 C 5.61991 67.9136 16.1634 C 0.0 **** 0.0
38754 C 5.24304 69.3088 15.7897 C 0.0 **** 0.0
38755 C 7.55071 66.2684 16.4339 C 0.0 **** 0.0
38756 C 8.96987 65.9276 16.0084 C 0.0 **** 0.0
38757 C 9.98559 67.0322 16.2666 C 0.0 **** 0.0
38758 O 4.92283 66.9713 15.3465 O 0.0 **** 0.0
38759 C 5.11794 65.7259 15.9707 C 0.0 **** 0.0
38760 C 6.61707 65.2912 15.783 C 0.0 **** 0.0
38761 C 9.45544 64.4726 16.4366 C 0.0 **** 0.0
38762 C 8.36478 63.3719 16.1303 C 0.0 **** 0.0
38763 C 6.90766 63.8942 16.3496 C 0.0 **** 0.0
38764 C 8.43974 62.0943 16.9712 C 0.0 **** 0.0
38765 C 9.92434 61.7547 17.2548 C 0.0 **** 0.0
38766 C 10.6475 62.927 17.9789 C 0.0 **** 0.0
38767 C 9.94316 64.2922 17.8881 C 0.0 **** 0.0
38768 C 5.95509 62.9167 15.6346 C 0.0 **** 0.0
38769 C 4.53796 63.2982 15.9275 C 0.0 **** 0.0
38770 C 4.21046 64.6777 15.3252 C 0.0 **** 0.0
38771 C 7.6425 61.0447 16.1364 C 0.0 **** 0.0
38772 C 6.1998 61.4646 16.0146 C 0.0 **** 0.0
38773 C 15.244 81.0847 25.9145 C 0.0 **** 0.0
38774 C 14.1443 80.0003 25.8359 C 0.0 **** 0.0
38775 C 16.1472 80.9141 27.1568 C 0.0 **** 0.0
38776 O 15.1649 70.9539 17.9701 O 0.0 **** 0.0
38777 C 2.75905 65.0865 15.4221 C 0.0 **** 0.0
38778 C 1.73521 63.9433 15.6177 C 0.0 **** 0.0
38779 C 2.24686 62.7307 14.8556 C 0.0 **** 0.0
38780 C 3.53236 62.1627 15.5136 C 0.0 **** 0.0
38781 C 4.08496 61.0546 14.5934 C 0.0 **** 0.0
38782 C 3.02875 59.9361 14.4787 C 0.0 **** 0.0
38783 C 1.8179 60.4526 13.7731 C 0.0 **** 0.0
38784 C 1.19836 61.5902 14.6043 C 0.0 **** 0.0
38785 C 0.723857 59.33 13.6205 C 0.0 **** 0.0
38786 C 1.24069 57.9702 13.0586 C 0.0 **** 0.0
38787 C 2.5022 57.575 13.7905 C 0.0 **** 0.0
38788 C 3.60572 58.6574 13.8253 C 0.0 **** 0.0
38789 C 4.93231 58.148 14.4102 C 0.0 **** 0.0
38790 C 5.5301 59.128 15.4472 C 0.0 **** 0.0
38791 C 5.50418 60.5591 14.9774 C 0.0 **** 0.0
38792 C 4.74473 56.7482 15.065 C 0.0 **** 0.0
38793 C 4.28346 55.7484 13.9716 C 0.0 **** 0.0
38794 C 3.05035 56.2728 13.2458 C 0.0 **** 0.0
38795 C 7.69461 59.5925 16.7101 C 0.0 **** 0.0
38796 C 6.93249 58.5892 15.8569 C 0.0 **** 0.0
38797 C 5.98786 56.2672 15.8354 C 0.0 **** 0.0
38798 C 6.69756 57.3413 16.6604 C 0.0 **** 0.0
38799 C 7.94796 56.7627 17.3573 C 0.0 **** 0.0
38800 C 7.8092 55.2641 17.7402 C 0.0 **** 0.0
38801 C 6.3843 54.7954 17.9762 C 0.0 **** 0.0
38802 C 5.47044 55.2651 16.869 C 0.0 **** 0.0
38803 O 4.30963 54.8496 16.8647 O 0.0 **** 0.0
38804 H 10.3913 89.9121 25.376 H 0.0 **** 0.0
38805 H 10.3246 88.2569 25.8967 H 0.0 **** 0.0
38806 H 12.4342 89.302 24.6725 H 0.0 **** 0.0
38807 H 11.975 87.5331 24.4721 H 0.0 **** 0.0
38808 H 11.2313 89.8397 22.5745 H 0.0 **** 0.0
38809 H 9.81323 88.5754 21.3678 H 0.0 **** 0.0
38810 H 9.49316 86.7322 23.8314 H 0.0 **** 0.0
38811 H 8.23653 87.5456 22.8512 H 0.0 **** 0.0
38812 H 10.975 85.86 22.3274 H 0.0 **** 0.0
38813 H 12.7722 85.9973 20.9958 H 0.0 **** 0.0
38814 H 11.8159 88.7978 20.0553 H 0.0 **** 0.0
38815 H 13.4676 88.132 19.9954 H 0.0 **** 0.0
38816 H 13.417 89.4468 21.9843 H 0.0 **** 0.0
38817 H 13.4443 87.7389 22.4891 H 0.0 **** 0.0
38818 H 11.219 84.5793 18.1983 H 0.0 **** 0.0
38819 H 9.34538 85.9219 18.6656 H 0.0 **** 0.0
38820 H 8.90455 85.2616 21.48 H 0.0 **** 0.0
38821 H 8.70251 86.8256 20.4993 H 0.0 **** 0.0
38822 H 11.5208 84.0848 21.1027 H 0.0 **** 0.0
38823 H 6.77867 80.567 19.3873 H 0.0 **** 0.0
38824 H 6.95051 81.8033 20.7724 H 0.0 **** 0.0
38825 H 5.77345 83.0064 19.0844 H 0.0 **** 0.0
38826 H 6.66942 82.289 17.6714 H 0.0 **** 0.0
38827 H 7.20737 84.7599 18.2518 H 0.0 **** 0.0
38828 H 13.4303 82.8772 21.8924 H 0.0 **** 0.0
38829 H 15.5367 83.0893 17.7932 H 0.0 **** 0.0
38830 H 16.1454 84.5815 18.5851 H 0.0 **** 0.0
38831 H 13.6259 84.7576 18.1381 H 0.0 **** 0.0
38832 H 17.7881 82.3687 18.793 H 0.0 **** 0.0
38833 H 18.1367 83.3582 20.262 H 0.0 **** 0.0
38834 H 18.8056 80.9816 20.5555 H 0.0 **** 0.0
38835 H 17.2295 80.3289 19.9748 H 0.0 **** 0.0
38836 H 14.9424 82.8525 23.6168 H 0.0 **** 0.0
38837 H 14.362 81.198 23.2855 H 0.0 **** 0.0
38838 H 16.9699 81.9623 24.7857 H 0.0 **** 0.0
38839 H 15.9909 79.1938 23.8193 H 0.0 **** 0.0
38840 H 17.389 79.4105 24.8894 H 0.0 **** 0.0
38841 H 17.9293 79.2751 22.4766 H 0.0 **** 0.0
38842 H 18.6253 80.776 23.1884 H 0.0 **** 0.0
38843 H 14.6165 79.8479 20.8398 H 0.0 **** 0.0
38844 H 14.0984 74.7142 20.0922 H 0.0 **** 0.0
38845 H 13.8625 72.5386 19.0857 H 0.0 **** 0.0
38846 H 7.30954 77.2082 19.3462 H 0.0 **** 0.0
38847 H 12.8804 67.127 18.4249 H 0.0 **** 0.0
38848 H 13.9791 69.0601 19.2886 H 0.0 **** 0.0
38849 H 14.6715 69.7665 16.3766 H 0.0 **** 0.0
38850 H 16.3182 68.3654 17.445 H 0.0 **** 0.0
38851 H 16.3796 68.8654 19.1855 H 0.0 **** 0.0
38852 H 15.2191 66.723 19.7521 H 0.0 **** 0.0
38853 H 16.9003 66.5991 19.1217 H 0.0 **** 0.0
38854 H 16.2887 65.6975 17.1585 H 0.0 **** 0.0
38855 H 14.8145 67.058 16.0757 H 0.0 **** 0.0
38856 H 12.579 65.2284 16.8749 H 0.0 **** 0.0
38857 H 12.9334 65.9135 15.2729 H 0.0 **** 0.0
38858 H 15.1306 64.5557 15.2578 H 0.0 **** 0.0
38859 H 13.7784 63.4892 15.2692 H 0.0 **** 0.0
38860 H 15.8041 63.1058 17.007 H 0.0 **** 0.0
38861 H 14.1005 62.755 17.5776 H 0.0 **** 0.0
38862 H 14.1087 64.7002 18.8526 H 0.0 **** 0.0
38863 H 3.29877 74.5852 17.7688 H 0.0 **** 0.0
38864 H 4.58654 76.388 18.5742 H 0.0 **** 0.0
38865 H 4.47221 76.7921 21.0765 H 0.0 **** 0.0
38866 H 2.86603 76.4214 20.3137 H 0.0 **** 0.0
38867 H 2.71977 75.2606 22.154 H 0.0 **** 0.0
38868 H 4.51369 74.7462 22.247 H 0.0 **** 0.0
38869 H 2.52139 73.0986 21.592 H 0.0 **** 0.0
38870 H 4.1719 72.8028 21.0434 H 0.0 **** 0.0
38871 H 1.86609 74.325 19.4565 H 0.0 **** 0.0
38872 H 2.50528 72.6683 19.1872 H 0.0 **** 0.0
38873 H 4.56093 71.9052 16.2319 H 0.0 **** 0.0
38874 H 4.16172 69.4521 16.0088 H 0.0 **** 0.0
38875 H 10.7977 66.8266 15.5118 H 0.0 **** 0.0
38876 H 10.3043 64.2282 15.7332 H 0.0 **** 0.0
38877 H 8.51402 63.098 15.0733 H 0.0 **** 0.0
38878 H 7.92368 62.2618 17.9763 H 0.0 **** 0.0
38879 H 10.4323 61.4755 16.3049 H 0.0 **** 0.0
38880 H 9.9705 60.8478 17.9245 H 0.0 **** 0.0
38881 H 11.6442 63.0448 17.4799 H 0.0 **** 0.0
38882 H 10.7825 62.6501 19.0314 H 0.0 **** 0.0
38883 H 10.6005 65.0886 18.2258 H 0.0 **** 0.0
38884 H 9.03075 64.3319 18.5542 H 0.0 **** 0.0
38885 H 14.7496 82.0898 26.0706 H 0.0 **** 0.0
38886 H 13.4496 80.1215 26.6668 H 0.0 **** 0.0
38887 H 14.6413 79.0049 25.9535 H 0.0 **** 0.0
38888 H 13.5952 79.9707 24.844 H 0.0 **** 0.0
38889 H 16.8885 81.7445 27.1375 H 0.0 **** 0.0
38890 H 16.6673 79.9609 27.1327 H 0.0 **** 0.0
38891 H 15.5548 80.9228 28.0995 H 0.0 **** 0.0
38892 H 15.5231 71.5455 17.2141 H 0.0 **** 0.0
38893 H 2.50709 65.6994 14.5264 H 0.0 **** 0.0
38894 H 0.810221 64.3511 15.2215 H 0.0 **** 0.0
38895 H 0.383128 62.0364 14.1157 H 0.0 **** 0.0
38896 H -0.121338 59.6862 12.9987 H 0.0 **** 0.0
38897 H 0.426674 57.2683 13.2928 H 0.0 **** 0.0
38898 H 5.07632 55.5977 13.2158 H 0.0 **** 0.0
38899 H 2.26853 55.4707 13.2573 H 0.0 **** 0.0
38900 H 8.74612 59.2422 16.7114 H 0.0 **** 0.0
38901 H 8.81532 56.9125 16.6108 H 0.0 **** 0.0
38902 H 8.15211 57.3495 18.2807 H 0.0 **** 0.0
38903 H 8.41521 55.0528 18.6406 H 0.0 **** 0.0
38904 H 8.21644 54.5864 16.9182 H 0.0 **** 0.0
38905 H 6.01424 55.2205 18.982 H 0.0 **** 0.0
38906 H 6.41359 53.707 18.0161 H 0.0 **** 0.0
38907 C 38.6616 73.1362 18.8368 C 0.0 **** 0.0
38908 C 39.7574 73.6186 17.8336 C 0.0 **** 0.0
38909 C 41.1585 73.3275 18.4333 C 0.0 **** 0.0
38910 C 41.183 73.4211 20.0041 C 0.0 **** 0.0
38911 C 39.9859 72.6716 20.6748 C 0.0 **** 0.0
38912 O 39.1474 72.1182 19.6841 O 0.0 **** 0.0
38913 C 41.3559 74.8877 20.5393 C 0.0 **** 0.0
38914 C 42.4516 75.6956 19.7539 C 0.0 **** 0.0
38915 C 43.2427 74.7954 18.8155 C 0.0 **** 0.0
38916 C 42.3036 74.1957 17.7727 C 0.0 **** 0.0
38917 O 43.3673 76.3631 20.6156 O 0.0 **** 0.0
38918 C 42.7348 77.1675 21.5909 C 0.0 **** 0.0
38919 C 42.0897 76.2851 22.6633 C 0.0 **** 0.0
38920 C 41.5609 74.9346 22.068 C 0.0 **** 0.0
38921 C 41.1188 77.0074 23.5731 C 0.0 **** 0.0
38922 C 40.3927 78.1217 23.1071 C 0.0 **** 0.0
38923 C 41.2181 79.0815 22.2228 C 0.0 **** 0.0
38924 C 41.8404 78.28 21.0464 C 0.0 **** 0.0
38925 C 40.3745 80.2513 21.7082 C 0.0 **** 0.0
38926 C 39.7805 80.9705 22.9171 C 0.0 **** 0.0
38927 C 38.8633 80.044 23.6985 C 0.0 **** 0.0
38928 C 39.6783 78.882 24.298 C 0.0 **** 0.0
38929 C 38.8362 77.9189 25.1083 C 0.0 **** 0.0
38930 C 39.786 76.9198 25.7947 C 0.0 **** 0.0
38931 C 40.8303 76.3954 24.832 C 0.0 **** 0.0
38932 O 38.0908 80.6809 24.7196 O 0.0 **** 0.0
38933 C 38.5991 81.9521 25.0715 C 0.0 **** 0.0
38934 C 38.4961 82.9481 23.894 C 0.0 **** 0.0
38935 C 39.0498 82.2766 22.5795 C 0.0 **** 0.0
38936 C 42.5595 79.2383 20.0879 C 0.0 **** 0.0
38937 C 41.6166 80.3327 19.5607 C 0.0 **** 0.0
38938 C 41.2275 81.207 20.7993 C 0.0 **** 0.0
38939 C 42.1521 81.1066 18.4031 C 0.0 **** 0.0
38940 C 43.4568 81.1676 18.1394 C 0.0 **** 0.0
38941 C 44.4526 80.2707 18.8856 C 0.0 **** 0.0
38942 C 43.8629 79.2418 19.7341 C 0.0 **** 0.0
38943 C 43.9674 82.09 17.0456 C 0.0 **** 0.0
38944 C 43.143 83.349 16.9496 C 0.0 **** 0.0
38945 C 41.6731 82.9584 16.8087 C 0.0 **** 0.0
38946 C 41.2128 81.8686 17.5312 C 0.0 **** 0.0
38947 C 39.7706 81.3891 17.4155 C 0.0 **** 0.0
38948 C 38.8847 82.1951 16.4664 C 0.0 **** 0.0
38949 C 39.3221 83.6658 16.4249 C 0.0 **** 0.0
38950 C 40.7555 83.7894 15.9045 C 0.0 **** 0.0
38951 C 40.0678 83.1713 21.8467 C 0.0 **** 0.0
38952 C 40.4597 82.4968 20.5121 C 0.0 **** 0.0
38953 C 39.237 84.2133 24.2716 C 0.0 **** 0.0
38954 C 39.062 85.309 23.2499 C 0.0 **** 0.0
38955 S 39.2477 84.7453 21.4743 S 0.0 **** 0.0
38956 C 40.0878 86.4575 23.5216 C 0.0 **** 0.0
38957 C 40.0314 86.9969 24.9738 C 0.0 **** 0.0
38958 C 40.0555 85.8578 25.9745 C 0.0 **** 0.0
38959 C 38.9111 84.866 25.6644 C 0.0 **** 0.0
38960 C 40.1167 86.3025 27.4219 C 0.0 **** 0.0
38961 C 41.3216 87.2163 27.6404 C 0.0 **** 0.0
38962 C 41.3491 88.4372 26.6723 C 0.0 **** 0.0
38963 C 41.1937 87.9738 25.2109 C 0.0 **** 0.0
38964 C 42.6198 89.2514 26.9331 C 0.0 **** 0.0
38965 C 43.1517 89.47 28.3908 C 0.0 **** 0.0
38966 C 42.9072 88.2672 29.3039 C 0.0 **** 0.0
38967 C 41.5274 87.6281 29.1236 C 0.0 **** 0.0
38968 C 38.62 83.829 26.7701 C 0.0 **** 0.0
38969 C 37.8928 82.5682 26.2749 C 0.0 **** 0.0
38970 C 40.0532 85.0702 28.4144 C 0.0 **** 0.0
38971 C 39.8373 83.7073 27.7642 C 0.0 **** 0.0
38972 C 41.3236 86.4433 30.145 C 0.0 **** 0.0
38973 C 41.1851 85.064 29.4589 C 0.0 **** 0.0
38974 C 43.1355 88.7019 30.8223 C 0.0 **** 0.0
38975 C 42.4602 87.808 31.8497 C 0.0 **** 0.0
38976 C 42.3159 86.3819 31.3128 C 0.0 **** 0.0
38977 O 44.5366 89.7379 28.314 O 0.0 **** 0.0
38978 C 44.7404 91.0639 27.8626 C 0.0 **** 0.0
38979 C 43.5403 91.6546 26.9861 C 0.0 **** 0.0
38980 C 42.8837 90.5138 26.1032 C 0.0 **** 0.0
38981 C 43.8649 92.9232 26.1767 C 0.0 **** 0.0
38982 C 45.1326 93.5969 26.6727 C 0.0 **** 0.0
38983 C 46.3711 92.6223 26.5195 C 0.0 **** 0.0
38984 C 46.0875 91.1914 27.0644 C 0.0 **** 0.0
38985 C 47.3013 90.6012 27.8576 C 0.0 **** 0.0
38986 C 48.6275 90.903 27.1136 C 0.0 **** 0.0
38987 C 48.7315 92.3922 26.7323 C 0.0 **** 0.0
38988 N 47.5603 93.1638 27.1708 N 0.0 **** 0.0
38989 C 39.7557 82.5028 28.7371 C 0.0 **** 0.0
38990 C 40.8606 82.5849 29.8014 C 0.0 **** 0.0
38991 C 40.8563 83.9775 30.4938 C 0.0 **** 0.0
38992 O 40.6324 81.6057 30.7816 O 0.0 **** 0.0
38993 C 40.8024 80.33 30.1415 C 0.0 **** 0.0
38994 C 39.9666 80.1399 28.8704 C 0.0 **** 0.0
38995 O 39.9742 81.2919 28.0244 O 0.0 **** 0.0
38996 C 38.5049 79.6136 29.1372 C 0.0 **** 0.0
38997 C 37.9866 79.9796 30.5023 C 0.0 **** 0.0
38998 C 38.9386 79.439 31.5767 C 0.0 **** 0.0
38999 C 40.4173 79.2615 31.1432 C 0.0 **** 0.0
39000 C 41.8495 85.4082 32.3801 C 0.0 **** 0.0
39001 C 41.7971 84.0449 31.7339 C 0.0 **** 0.0
39002 C 43.1845 87.9051 33.1772 C 0.0 **** 0.0
39003 C 42.7007 86.9017 34.2476 C 0.0 **** 0.0
39004 C 42.7256 85.4678 33.6363 C 0.0 **** 0.0
39005 C 42.7891 89.2926 33.6773 C 0.0 **** 0.0
39006 C 43.1972 90.4322 32.7282 C 0.0 **** 0.0
39007 C 42.7877 90.1177 31.2561 C 0.0 **** 0.0
39008 O 43.4013 87.1081 35.4465 O 0.0 **** 0.0
39009 C 42.815 88.2931 35.9577 C 0.0 **** 0.0
39010 C 43.2671 89.5284 35.1246 C 0.0 **** 0.0
39011 C 42.5492 91.8158 33.2136 C 0.0 **** 0.0
39012 C 42.7714 91.9964 34.7622 C 0.0 **** 0.0
39013 C 42.5329 90.715 35.6059 C 0.0 **** 0.0
39014 C 41.774 93.0047 35.3218 C 0.0 **** 0.0
39015 C 41.3674 94.1268 34.3504 C 0.0 **** 0.0
39016 C 40.6974 93.5323 33.074 C 0.0 **** 0.0
39017 C 41.0573 92.0412 32.8301 C 0.0 **** 0.0
39018 C 42.9084 90.9457 37.0616 C 0.0 **** 0.0
39019 C 42.5317 89.7484 37.9776 C 0.0 **** 0.0
39020 C 43.1811 88.4716 37.4252 C 0.0 **** 0.0
39021 C 42.3013 93.4387 36.6854 C 0.0 **** 0.0
39022 C 42.2616 92.2091 37.6167 C 0.0 **** 0.0
39023 C 37.4006 81.9543 16.9137 C 0.0 **** 0.0
39024 C 37.0047 82.5653 18.288 C 0.0 **** 0.0
39025 C 36.4264 82.365 15.7887 C 0.0 **** 0.0
39026 O 41.6641 91.0083 25.5391 O 0.0 **** 0.0
39027 C 42.7936 87.3065 38.3353 C 0.0 **** 0.0
39028 C 43.346 87.5932 39.7358 C 0.0 **** 0.0
39029 C 42.7969 88.8695 40.3239 C 0.0 **** 0.0
39030 C 43.0782 90.0254 39.3773 C 0.0 **** 0.0
39031 C 42.6218 91.3991 39.8968 C 0.0 **** 0.0
39032 C 43.3565 91.6399 41.2397 C 0.0 **** 0.0
39033 C 42.9744 90.5094 42.2271 C 0.0 **** 0.0
39034 C 43.4011 89.1385 41.6682 C 0.0 **** 0.0
39035 C 43.6035 90.6976 43.6316 C 0.0 **** 0.0
39036 C 43.3352 92.0765 44.2142 C 0.0 **** 0.0
39037 C 42.5484 93.0152 43.3112 C 0.0 **** 0.0
39038 C 43.0846 93.0333 41.8689 C 0.0 **** 0.0
39039 C 42.1899 93.9423 41.0152 C 0.0 **** 0.0
39040 C 42.6003 93.9689 39.5362 C 0.0 **** 0.0
39041 C 42.941 92.527 38.9334 C 0.0 **** 0.0
39042 C 42.2481 95.3548 41.6627 C 0.0 **** 0.0
39043 C 41.6971 95.3805 43.0366 C 0.0 **** 0.0
39044 C 42.4859 94.4215 43.9261 C 0.0 **** 0.0
39045 C 41.5086 94.6085 37.32 C 0.0 **** 0.0
39046 C 42.0737 95.1001 38.6476 C 0.0 **** 0.0
39047 C 41.7314 96.5161 40.8085 C 0.0 **** 0.0
39048 C 41.1088 96.0346 39.4157 C 0.0 **** 0.0
39049 C 40.7869 97.2751 38.5837 C 0.0 **** 0.0
39050 C 42.0816 98.073 38.2374 C 0.0 **** 0.0
39051 C 42.7035 98.5992 39.5901 C 0.0 **** 0.0
39052 C 42.8308 97.5115 40.6306 C 0.0 **** 0.0
39053 O 43.8287 97.4571 41.3486 O 0.0 **** 0.0
39054 H 37.8443 72.677 18.2388 H 0.0 **** 0.0
39055 H 38.2447 74.0083 19.3938 H 0.0 **** 0.0
39056 H 39.7595 73.0885 16.8652 H 0.0 **** 0.0
39057 H 39.5541 74.7063 17.7076 H 0.0 **** 0.0
39058 H 41.3297 72.278 18.1531 H 0.0 **** 0.0
39059 H 42.0874 72.8558 20.2925 H 0.0 **** 0.0
39060 H 39.3598 73.2905 21.3447 H 0.0 **** 0.0
39061 H 40.3915 71.8207 21.2847 H 0.0 **** 0.0
39062 H 40.4098 75.4502 20.3787 H 0.0 **** 0.0
39063 H 41.9857 76.4492 19.1107 H 0.0 **** 0.0
39064 H 43.7361 74.0383 19.4146 H 0.0 **** 0.0
39065 H 44.0044 75.4384 18.3348 H 0.0 **** 0.0
39066 H 42.8104 73.5859 17.0274 H 0.0 **** 0.0
39067 H 41.8949 74.998 17.1439 H 0.0 **** 0.0
39068 H 43.5219 77.7239 22.1472 H 0.0 **** 0.0
39069 H 42.9039 75.9482 23.362 H 0.0 **** 0.0
39070 H 40.5624 74.6563 22.4892 H 0.0 **** 0.0
39071 H 42.2986 74.1617 22.3265 H 0.0 **** 0.0
39072 H 40.9703 77.8849 20.5214 H 0.0 **** 0.0
39073 H 38.2385 78.4912 25.8281 H 0.0 **** 0.0
39074 H 38.1194 77.3921 24.4603 H 0.0 **** 0.0
39075 H 39.2466 76.0399 26.1623 H 0.0 **** 0.0
39076 H 40.3582 77.3734 26.658 H 0.0 **** 0.0
39077 H 41.3844 75.4717 25.1778 H 0.0 **** 0.0
39078 H 40.7115 79.7542 19.2706 H 0.0 **** 0.0
39079 H 45.1772 80.8644 19.4282 H 0.0 **** 0.0
39080 H 45.0375 79.7476 18.1426 H 0.0 **** 0.0
39081 H 44.5454 78.4811 20.086 H 0.0 **** 0.0
39082 H 45.0011 82.4398 17.249 H 0.0 **** 0.0
39083 H 43.9514 81.5278 16.0953 H 0.0 **** 0.0
39084 H 43.3934 83.9119 16.0184 H 0.0 **** 0.0
39085 H 43.3021 84.0557 17.8519 H 0.0 **** 0.0
39086 H 39.787 80.2942 17.0554 H 0.0 **** 0.0
39087 H 39.3227 81.2694 18.4201 H 0.0 **** 0.0
39088 H 38.9702 81.7304 15.4577 H 0.0 **** 0.0
39089 H 39.2916 84.1295 17.4335 H 0.0 **** 0.0
39090 H 38.5806 84.2023 15.7594 H 0.0 **** 0.0
39091 H 41.0516 84.861 15.896 H 0.0 **** 0.0
39092 H 40.8441 83.3788 14.8867 H 0.0 **** 0.0
39093 H 41.1673 83.1354 19.9493 H 0.0 **** 0.0
39094 H 39.879 87.3009 22.8745 H 0.0 **** 0.0
39095 H 41.0868 88.8654 24.5563 H 0.0 **** 0.0
39096 H 37.7231 81.8583 27.1215 H 0.0 **** 0.0
39097 H 44.831 91.6974 28.7696 H 0.0 **** 0.0
39098 H 42.7864 91.9789 27.7219 H 0.0 **** 0.0
39099 H 43.5752 90.2198 25.2761 H 0.0 **** 0.0
39100 H 44.0319 92.6418 25.0565 H 0.0 **** 0.0
39101 H 43.0473 93.6191 26.3388 H 0.0 **** 0.0
39102 H 45.0037 93.8947 27.723 H 0.0 **** 0.0
39103 H 45.3668 94.5607 26.1718 H 0.0 **** 0.0
39104 H 46.5539 92.6085 25.411 H 0.0 **** 0.0
39105 H 45.8905 90.5084 26.2141 H 0.0 **** 0.0
39106 H 47.3333 91.0709 28.8992 H 0.0 **** 0.0
39107 H 47.2403 89.5415 27.9779 H 0.0 **** 0.0
39108 H 48.6998 90.2856 26.1935 H 0.0 **** 0.0
39109 H 49.5392 90.5685 27.6803 H 0.0 **** 0.0
39110 H 48.823 92.4428 25.6186 H 0.0 **** 0.0
39111 H 49.6362 92.8096 27.1986 H 0.0 **** 0.0
39112 H 47.4357 93.1135 28.2159 H 0.0 **** 0.0
39113 H 41.855 80.1628 29.9709 H 0.0 **** 0.0
39114 H 40.407 79.3164 28.2371 H 0.0 **** 0.0
39115 H 37.7601 80.016 28.3879 H 0.0 **** 0.0
39116 H 38.4694 78.5142 28.9984 H 0.0 **** 0.0
39117 H 37.0033 79.5296 30.6858 H 0.0 **** 0.0
39118 H 37.9197 81.0816 30.5222 H 0.0 **** 0.0
39119 H 38.6152 78.4386 31.9522 H 0.0 **** 0.0
39120 H 38.8808 80.1371 32.4477 H 0.0 **** 0.0
39121 H 40.5991 78.2318 30.7157 H 0.0 **** 0.0
39122 H 41.0029 79.3362 32.0966 H 0.0 **** 0.0
39123 H 41.5273 83.3028 32.4743 H 0.0 **** 0.0
39124 H 42.4052 84.7157 34.386 H 0.0 **** 0.0
39125 H 43.1539 90.9266 30.5869 H 0.0 **** 0.0
39126 H 43.1351 92.5698 32.6512 H 0.0 **** 0.0
39127 H 43.8131 92.3614 34.9639 H 0.0 **** 0.0
39128 H 40.824 92.4455 35.5259 H 0.0 **** 0.0
39129 H 42.3146 94.7351 34.1255 H 0.0 **** 0.0
39130 H 40.7017 94.8179 34.8211 H 0.0 **** 0.0
39131 H 41.0079 94.1124 32.1973 H 0.0 **** 0.0
39132 H 39.6078 93.6847 33.1829 H 0.0 **** 0.0
39133 H 40.8156 91.7634 31.7808 H 0.0 **** 0.0
39134 H 40.4444 91.3927 33.4909 H 0.0 **** 0.0
39135 H 37.2845 80.8458 16.9855 H 0.0 **** 0.0
39136 H 35.8871 82.5415 18.3741 H 0.0 **** 0.0
39137 H 37.2833 83.6402 18.3233 H 0.0 **** 0.0
39138 H 37.4076 81.9504 19.1437 H 0.0 **** 0.0
39139 H 36.7739 82.0041 14.7889 H 0.0 **** 0.0
39140 H 36.3552 83.4615 15.7681 H 0.0 **** 0.0
39141 H 35.3744 81.9199 15.9627 H 0.0 **** 0.0
39142 H 41.8539 91.668 24.8317 H 0.0 **** 0.0
39143 H 43.2026 86.3703 37.8928 H 0.0 **** 0.0
39144 H 43.1199 86.7089 40.3977 H 0.0 **** 0.0
39145 H 43.2271 88.3456 42.4029 H 0.0 **** 0.0
39146 H 44.7126 90.4954 43.69 H 0.0 **** 0.0
39147 H 42.7755 91.9403 45.1807 H 0.0 **** 0.0
39148 H 40.6692 95.0639 42.9986 H 0.0 **** 0.0
39149 H 42.0659 94.5261 44.9706 H 0.0 **** 0.0
39150 H 41.6623 95.4904 36.6507 H 0.0 **** 0.0
39151 H 40.3142 96.9296 37.6557 H 0.0 **** 0.0
39152 H 40.0798 97.8549 39.2069 H 0.0 **** 0.0
39153 H 41.841 98.9381 37.6129 H 0.0 **** 0.0
39154 H 42.7654 97.4745 37.6301 H 0.0 **** 0.0
39155 H 41.9894 99.324 40.0056 H 0.0 **** 0.0
39156 H 43.6649 99.0991 39.4634 H 0.0 **** 0.0
39157 C 27.9537 26.0142 35.6578 C 0.0 **** 0.0
39158 C 28.1585 25.6414 37.1408 C 0.0 **** 0.0
39159 C 28.4444 26.8784 38.0635 C 0.0 **** 0.0
39160 C 29.5757 27.7468 37.473 C 0.0 **** 0.0
39161 C 29.6377 27.6048 35.8952 C 0.0 **** 0.0
39162 O 28.3544 27.3164 35.327 O 0.0 **** 0.0
39163 C 30.9275 27.4471 38.2008 C 0.0 **** 0.0
39164 C 30.8192 27.9468 39.6883 C 0.0 **** 0.0
39165 C 29.4581 27.5126 40.3527 C 0.0 **** 0.0
39166 C 28.6819 26.461 39.5373 C 0.0 **** 0.0
39167 O 30.9292 29.37 39.8093 O 0.0 **** 0.0
39168 C 32.2056 29.8473 39.3231 C 0.0 **** 0.0
39169 C 32.3473 29.5662 37.8234 C 0.0 **** 0.0
39170 C 32.1965 28.0433 37.4822 C 0.0 **** 0.0
39171 C 33.707 30.033 37.2913 C 0.0 **** 0.0
39172 C 34.8996 29.8478 38.0795 C 0.0 **** 0.0
39173 C 34.6978 30.1595 39.5707 C 0.0 **** 0.0
39174 C 33.472 29.4221 40.0898 C 0.0 **** 0.0
39175 C 35.9772 29.7325 40.3379 C 0.0 **** 0.0
39176 C 37.1927 30.5461 39.8824 C 0.0 **** 0.0
39177 C 37.4256 30.4572 38.3551 C 0.0 **** 0.0
39178 C 36.0836 30.7675 37.6344 C 0.0 **** 0.0
39179 C 36.2639 30.6212 36.1009 C 0.0 **** 0.0
39180 C 35.038 31.1242 35.371 C 0.0 **** 0.0
39181 C 33.8001 30.4939 35.9854 C 0.0 **** 0.0
39182 O 38.4456 31.3753 37.968 O 0.0 **** 0.0
39183 C 39.6584 31.1657 38.6956 C 0.0 **** 0.0
39184 C 39.6373 29.9651 39.6724 C 0.0 **** 0.0
39185 C 38.4716 30.1693 40.667 C 0.0 **** 0.0
39186 C 33.4518 29.6985 41.5601 C 0.0 **** 0.0
39187 C 34.5821 29.0425 42.3452 C 0.0 **** 0.0
39188 C 35.8552 29.7468 41.897 C 0.0 **** 0.0
39189 C 34.3269 29.1479 43.8564 C 0.0 **** 0.0
39190 C 33.752 30.2657 44.3525 C 0.0 **** 0.0
39191 C 32.9106 31.1856 43.5119 C 0.0 **** 0.0
39192 C 32.7934 30.757 42.0836 C 0.0 **** 0.0
39193 C 33.649 30.4556 45.8366 C 0.0 **** 0.0
39194 C 34.744 29.6916 46.6258 C 0.0 **** 0.0
39195 C 34.9266 28.2704 46.1065 C 0.0 **** 0.0
39196 C 34.7161 28.0294 44.7723 C 0.0 **** 0.0
39197 C 34.9158 26.6726 44.1673 C 0.0 **** 0.0
39198 C 34.9865 25.5318 45.2344 C 0.0 **** 0.0
39199 C 35.7664 26.0126 46.4327 C 0.0 **** 0.0
39200 C 35.1531 27.2226 47.1071 C 0.0 **** 0.0
39201 C 38.331 28.9195 41.6205 C 0.0 **** 0.0
39202 C 37.068 28.951 42.4774 C 0.0 **** 0.0
39203 C 41.0012 29.5633 40.2805 C 0.0 **** 0.0
39204 C 40.8822 28.3215 41.1565 C 0.0 **** 0.0
39205 S 39.8385 28.7384 42.6163 S 0.0 **** 0.0
39206 C 42.2249 27.906 41.6117 C 0.0 **** 0.0
39207 C 43.0321 27.3346 40.4469 C 0.0 **** 0.0
39208 C 42.7679 27.9917 39.0684 C 0.0 **** 0.0
39209 C 42.1207 29.4169 39.1659 C 0.0 **** 0.0
39210 C 44.0429 28.2007 38.2351 C 0.0 **** 0.0
39211 C 45.0369 27.0348 38.2436 C 0.0 **** 0.0
39212 C 45.2157 26.3889 39.6784 C 0.0 **** 0.0
39213 C 44.5295 27.1836 40.7912 C 0.0 **** 0.0
39214 C 46.6519 25.8686 40.0646 C 0.0 **** 0.0
39215 C 47.6739 25.7377 38.8887 C 0.0 **** 0.0
39216 C 47.3461 26.2991 37.4692 C 0.0 **** 0.0
39217 C 46.2986 27.4198 37.5151 C 0.0 **** 0.0
39218 C 41.5935 29.8127 37.8146 C 0.0 **** 0.0
39219 C 40.9301 31.2313 37.871 C 0.0 **** 0.0
39220 C 43.5813 28.5332 36.8238 C 0.0 **** 0.0
39221 C 42.6331 29.7092 36.7311 C 0.0 **** 0.0
39222 C 45.9765 27.852 36.0751 C 0.0 **** 0.0
39223 C 44.8289 28.8717 35.9684 C 0.0 **** 0.0
39224 C 48.6273 26.8133 36.7186 C 0.0 **** 0.0
39225 C 48.3395 27.4033 35.362 C 0.0 **** 0.0
39226 C 47.2292 28.4004 35.3779 C 0.0 **** 0.0
39227 O 48.3663 24.487 38.8144 O 0.0 **** 0.0
39228 C 47.4287 23.3942 38.8141 C 0.0 **** 0.0
39229 C 46.3765 23.4465 39.9653 C 0.0 **** 0.0
39230 C 46.6273 24.5823 40.9171 C 0.0 **** 0.0
39231 C 46.3234 22.1368 40.7771 C 0.0 **** 0.0
39232 C 46.1596 21.0267 39.7501 C 0.0 **** 0.0
39233 C 47.4445 20.838 38.9874 C 0.0 **** 0.0
39234 C 48.3118 22.1261 38.9139 C 0.0 **** 0.0
39235 C 49.3485 22.0581 37.7907 C 0.0 **** 0.0
39236 C 49.7096 20.5983 37.4415 C 0.0 **** 0.0
39237 C 48.3947 19.8356 36.9819 C 0.0 **** 0.0
39238 N 47.1379 20.3403 37.6203 N 0.0 **** 0.0
39239 C 42.0795 29.7617 35.2928 C 0.0 **** 0.0
39240 C 43.1949 29.7952 34.2288 C 0.0 **** 0.0
39241 C 44.3894 28.8876 34.5188 C 0.0 **** 0.0
39242 O 42.6472 29.5733 32.9604 O 0.0 **** 0.0
39243 C 41.9483 30.7529 32.6777 C 0.0 **** 0.0
39244 C 40.787 30.9384 33.7071 C 0.0 **** 0.0
39245 O 41.2169 30.9034 35.0491 O 0.0 **** 0.0
39246 C 39.6027 29.9375 33.447 C 0.0 **** 0.0
39247 C 39.183 29.7975 31.9821 C 0.0 **** 0.0
39248 C 39.9446 30.7343 31.0312 C 0.0 **** 0.0
39249 C 41.5126 30.7416 31.182 C 0.0 **** 0.0
39250 C 46.928 28.7113 33.8992 C 0.0 **** 0.0
39251 C 45.5829 29.4304 33.7247 C 0.0 **** 0.0
39252 C 49.6298 28.1208 34.8753 C 0.0 **** 0.0
39253 C 49.4302 29.0733 33.6254 C 0.0 **** 0.0
39254 C 48.0217 29.6641 33.4084 C 0.0 **** 0.0
39255 C 50.6495 27.054 34.5727 C 0.0 **** 0.0
39256 C 50.97 26.3463 35.8459 C 0.0 **** 0.0
39257 C 49.7481 25.7666 36.5653 C 0.0 **** 0.0
39258 O 50.1633 28.6422 32.4869 O 0.0 **** 0.0
39259 C 51.4919 28.7835 32.864 C 0.0 **** 0.0
39260 C 51.8814 27.7838 34.0427 C 0.0 **** 0.0
39261 C 52.159 25.3682 35.6964 C 0.0 **** 0.0
39262 C 53.368 25.8647 34.8363 C 0.0 **** 0.0
39263 C 52.9194 26.7433 33.6306 C 0.0 **** 0.0
39264 C 54.1633 24.6686 34.1488 C 0.0 **** 0.0
39265 C 54.3163 23.5711 35.1982 C 0.0 **** 0.0
39266 C 52.9387 22.9824 35.5721 C 0.0 **** 0.0
39267 C 51.7558 23.936 35.2974 C 0.0 **** 0.0
39268 C 54.1526 27.3732 32.9955 C 0.0 **** 0.0
39269 C 53.9027 28.5583 32.0285 C 0.0 **** 0.0
39270 C 52.4474 28.8599 31.6537 C 0.0 **** 0.0
39271 C 55.4602 25.2455 33.5012 C 0.0 **** 0.0
39272 C 55.0948 26.3169 32.4266 C 0.0 **** 0.0
39273 C 35.4376 24.1543 44.6206 C 0.0 **** 0.0
39274 C 36.9635 24.0466 44.5479 C 0.0 **** 0.0
39275 C 34.7998 23.0161 45.3919 C 0.0 **** 0.0
39276 O 45.6256 24.6082 41.901 O 0.0 **** 0.0
39277 C 52.3303 30.2391 31.0148 C 0.0 **** 0.0
39278 C 53.3093 30.4019 29.8312 C 0.0 **** 0.0
39279 C 54.7687 30.0448 30.2611 C 0.0 **** 0.0
39280 C 54.8156 28.624 30.7852 C 0.0 **** 0.0
39281 C 56.2392 28.2783 31.1988 C 0.0 **** 0.0
39282 C 57.1999 28.3544 29.9637 C 0.0 **** 0.0
39283 C 57.1718 29.7893 29.4898 C 0.0 **** 0.0
39284 C 55.7771 30.1831 29.0965 C 0.0 **** 0.0
39285 C 58.1217 29.996 28.3367 C 0.0 **** 0.0
39286 C 59.5558 29.6477 28.736 C 0.0 **** 0.0
39287 C 59.6307 28.185 29.2625 C 0.0 **** 0.0
39288 C 58.6551 28.0295 30.3974 C 0.0 **** 0.0
39289 C 58.7936 26.7057 31.2115 C 0.0 **** 0.0
39290 C 57.438 26.0042 31.423 C 0.0 **** 0.0
39291 C 56.3777 26.9942 32.0025 C 0.0 **** 0.0
39292 C 59.8897 25.6984 30.6764 C 0.0 **** 0.0
39293 C 61.1948 26.4347 30.4005 C 0.0 **** 0.0
39294 C 61.0762 27.7427 29.5709 C 0.0 **** 0.0
39295 C 56.3364 24.1929 32.8577 C 0.0 **** 0.0
39296 C 57.6558 24.8418 32.4134 C 0.0 **** 0.0
39297 C 60.043 24.5356 31.7341 C 0.0 **** 0.0
39298 C 58.679 23.8689 31.8225 C 0.0 **** 0.0
39299 C 58.6803 22.4133 32.3289 C 0.0 **** 0.0
39300 C 59.9186 21.588 31.9901 C 0.0 **** 0.0
39301 C 60.7921 22.2204 30.9321 C 0.0 **** 0.0
39302 C 61.1396 23.577 31.4149 C 0.0 **** 0.0
39303 O 62.2935 23.7822 31.7513 O 0.0 **** 0.0
39304 H 26.8396 25.8853 35.4727 H 0.0 **** 0.0
39305 H 28.452 25.2431 35.0525 H 0.0 **** 0.0
39306 H 27.2436 25.0525 37.5075 H 0.0 **** 0.0
39307 H 29.065 24.9186 37.2445 H 0.0 **** 0.0
39308 H 27.5608 27.4864 38.0442 H 0.0 **** 0.0
39309 H 29.441 28.8557 37.6592 H 0.0 **** 0.0
39310 H 30.3781 26.8063 35.6074 H 0.0 **** 0.0
39311 H 30.0767 28.4975 35.4741 H 0.0 **** 0.0
39312 H 31.1152 26.3504 38.2645 H 0.0 **** 0.0
39313 H 31.6205 27.4497 40.2611 H 0.0 **** 0.0
39314 H 28.8079 28.3572 40.4793 H 0.0 **** 0.0
39315 H 29.651 27.0838 41.35 H 0.0 **** 0.0
39316 H 27.6688 26.2735 40.0915 H 0.0 **** 0.0
39317 H 29.2879 25.4814 39.5803 H 0.0 **** 0.0
39318 H 32.1212 30.9598 39.3689 H 0.0 **** 0.0
39319 H 31.5787 30.0649 37.2367 H 0.0 **** 0.0
39320 H 33.0961 27.4905 37.8247 H 0.0 **** 0.0
39321 H 32.179 27.8658 36.3533 H 0.0 **** 0.0
39322 H 33.6551 28.3688 39.8764 H 0.0 **** 0.0
39323 H 37.14 31.259 35.7537 H 0.0 **** 0.0
39324 H 36.4213 29.5739 35.784 H 0.0 **** 0.0
39325 H 35.1287 30.9725 34.2961 H 0.0 **** 0.0
39326 H 34.9136 32.2352 35.533 H 0.0 **** 0.0
39327 H 32.8488 30.5704 35.4212 H 0.0 **** 0.0
39328 H 34.6102 28.0379 42.0288 H 0.0 **** 0.0
39329 H 33.2809 32.2173 43.679 H 0.0 **** 0.0
39330 H 31.9192 31.2019 43.9299 H 0.0 **** 0.0
39331 H 32.0715 31.3724 41.5282 H 0.0 **** 0.0
39332 H 33.689 31.539 46.0892 H 0.0 **** 0.0
39333 H 32.6273 30.0636 46.1894 H 0.0 **** 0.0
39334 H 34.4627 29.7063 47.7286 H 0.0 **** 0.0
39335 H 35.7115 30.2307 46.4989 H 0.0 **** 0.0
39336 H 34.083 26.4521 43.4658 H 0.0 **** 0.0
39337 H 35.8354 26.6999 43.5717 H 0.0 **** 0.0
39338 H 33.9747 25.3856 45.5971 H 0.0 **** 0.0
39339 H 36.7716 26.2983 46.0867 H 0.0 **** 0.0
39340 H 35.9021 25.2175 47.2302 H 0.0 **** 0.0
39341 H 35.8091 27.614 47.9301 H 0.0 **** 0.0
39342 H 34.1734 26.9991 47.535 H 0.0 **** 0.0
39343 H 37.2975 29.3435 43.5203 H 0.0 **** 0.0
39344 H 42.2077 27.1722 42.4682 H 0.0 **** 0.0
39345 H 44.6434 26.6984 41.7608 H 0.0 **** 0.0
39346 H 41.5866 31.9265 38.3648 H 0.0 **** 0.0
39347 H 46.8642 23.4557 37.8866 H 0.0 **** 0.0
39348 H 45.3579 23.6019 39.5735 H 0.0 **** 0.0
39349 H 47.653 24.3831 41.3671 H 0.0 **** 0.0
39350 H 47.2439 21.9732 41.3841 H 0.0 **** 0.0
39351 H 45.4448 22.1356 41.4727 H 0.0 **** 0.0
39352 H 45.2848 21.1961 39.0796 H 0.0 **** 0.0
39353 H 45.8579 20.0798 40.2133 H 0.0 **** 0.0
39354 H 48.0364 20.0178 39.5236 H 0.0 **** 0.0
39355 H 48.8914 22.1253 39.8722 H 0.0 **** 0.0
39356 H 48.9478 22.4729 36.8259 H 0.0 **** 0.0
39357 H 50.2514 22.6421 38.0831 H 0.0 **** 0.0
39358 H 50.1309 20.1241 38.3513 H 0.0 **** 0.0
39359 H 50.4632 20.5353 36.6327 H 0.0 **** 0.0
39360 H 48.523 18.7527 37.1686 H 0.0 **** 0.0
39361 H 48.255 19.9383 35.9043 H 0.0 **** 0.0
39362 H 46.802 21.1715 37.0661 H 0.0 **** 0.0
39363 H 42.5896 31.6337 32.7719 H 0.0 **** 0.0
39364 H 40.3804 31.897 33.5734 H 0.0 **** 0.0
39365 H 39.8573 28.9205 33.8264 H 0.0 **** 0.0
39366 H 38.695 30.2526 34.0337 H 0.0 **** 0.0
39367 H 38.0937 29.9636 31.828 H 0.0 **** 0.0
39368 H 39.2955 28.7467 31.6123 H 0.0 **** 0.0
39369 H 39.5109 31.7556 31.1238 H 0.0 **** 0.0
39370 H 39.6697 30.4729 29.9849 H 0.0 **** 0.0
39371 H 41.9001 31.6284 30.6133 H 0.0 **** 0.0
39372 H 41.9161 29.8824 30.6415 H 0.0 **** 0.0
39373 H 45.3561 29.3393 32.6449 H 0.0 **** 0.0
39374 H 47.909 29.9271 32.32 H 0.0 **** 0.0
39375 H 50.0538 25.5911 37.5852 H 0.0 **** 0.0
39376 H 52.467 25.2486 36.8003 H 0.0 **** 0.0
39377 H 53.9822 26.4936 35.5432 H 0.0 **** 0.0
39378 H 53.5424 24.294 33.3392 H 0.0 **** 0.0
39379 H 54.8822 23.9324 36.0756 H 0.0 **** 0.0
39380 H 54.8863 22.7075 34.7893 H 0.0 **** 0.0
39381 H 52.9085 22.6208 36.6061 H 0.0 **** 0.0
39382 H 52.7379 22.1134 34.9208 H 0.0 **** 0.0
39383 H 50.8665 23.6059 35.8802 H 0.0 **** 0.0
39384 H 51.491 23.9206 34.2168 H 0.0 **** 0.0
39385 H 35.0747 24.1038 43.5378 H 0.0 **** 0.0
39386 H 37.2531 23.1752 43.9011 H 0.0 **** 0.0
39387 H 37.3878 23.9506 45.5692 H 0.0 **** 0.0
39388 H 37.4403 24.9098 44.0255 H 0.0 **** 0.0
39389 H 33.6976 22.9666 45.2397 H 0.0 **** 0.0
39390 H 34.8763 23.0855 46.4616 H 0.0 **** 0.0
39391 H 35.1932 22.0127 45.0394 H 0.0 **** 0.0
39392 H 46.0075 24.4166 42.7653 H 0.0 **** 0.0
39393 H 51.3202 30.5305 30.7342 H 0.0 **** 0.0
39394 H 53.2104 31.354 29.2308 H 0.0 **** 0.0
39395 H 55.7853 31.2128 28.7257 H 0.0 **** 0.0
39396 H 58.1355 31.064 28.0127 H 0.0 **** 0.0
39397 H 60.1327 29.7342 27.783 H 0.0 **** 0.0
39398 H 61.8541 25.7424 29.7887 H 0.0 **** 0.0
39399 H 61.5836 28.5807 30.1417 H 0.0 **** 0.0
39400 H 56.5332 23.3571 33.5584 H 0.0 **** 0.0
39401 H 58.6167 22.4078 33.4552 H 0.0 **** 0.0
39402 H 57.8088 21.8637 31.9334 H 0.0 **** 0.0
39403 H 59.6642 20.5805 31.5971 H 0.0 **** 0.0
39404 H 60.4924 21.3386 32.889 H 0.0 **** 0.0
39405 H 60.2319 22.2105 29.962 H 0.0 **** 0.0
39406 H 61.7257 21.651 30.8411 H 0.0 **** 0.0
39407 C 25.1462 27.724 26.9518 C 0.0 **** 0.0
39408 C 24.7484 26.6886 25.8727 C 0.0 **** 0.0
39409 C 25.9553 26.2346 24.9889 C 0.0 **** 0.0
39410 C 26.96 27.3667 24.8258 C 0.0 **** 0.0
39411 C 27.3762 27.8729 26.2917 C 0.0 **** 0.0
39412 O 26.4838 27.5145 27.3516 O 0.0 **** 0.0
39413 C 26.4455 28.5317 23.9171 C 0.0 **** 0.0
39414 C 25.3674 28.079 22.848 C 0.0 **** 0.0
39415 C 25.5923 26.6219 22.4797 C 0.0 **** 0.0
39416 C 25.4852 25.6373 23.6649 C 0.0 **** 0.0
39417 O 25.4292 28.8255 21.6276 O 0.0 **** 0.0
39418 C 25.6486 30.1959 21.7682 C 0.0 **** 0.0
39419 C 27.0834 30.4221 22.2612 C 0.0 **** 0.0
39420 C 27.5975 29.2807 23.1708 C 0.0 **** 0.0
39421 C 27.3977 31.8324 22.8674 C 0.0 **** 0.0
39422 C 26.4198 32.4741 23.6942 C 0.0 **** 0.0
39423 C 25.0549 32.4721 22.9504 C 0.0 **** 0.0
39424 C 24.5781 31.0199 22.6416 C 0.0 **** 0.0
39425 C 24.002 33.2391 23.827 C 0.0 **** 0.0
39426 C 24.4375 34.7028 23.9692 C 0.0 **** 0.0
39427 C 25.6692 34.6545 24.8305 C 0.0 **** 0.0
39428 C 26.8484 33.8818 24.2407 C 0.0 **** 0.0
39429 C 27.7879 34.6574 23.3094 C 0.0 **** 0.0
39430 C 28.9852 33.8045 23.0447 C 0.0 **** 0.0
39431 C 28.5849 32.4661 22.5088 C 0.0 **** 0.0
39432 O 26.0992 35.8809 25.4614 O 0.0 **** 0.0
39433 C 25.4917 36.9765 24.8298 C 0.0 **** 0.0
39434 C 23.9949 36.9568 25.0409 C 0.0 **** 0.0
39435 C 23.3671 35.5535 24.6994 C 0.0 **** 0.0
39436 C 23.1608 31.0569 22.153 C 0.0 **** 0.0
39437 C 22.1668 31.6926 23.117 C 0.0 **** 0.0
39438 C 22.6142 33.2192 23.1578 C 0.0 **** 0.0
39439 C 20.7079 31.4606 22.6991 C 0.0 **** 0.0
39440 C 20.4076 31.5816 21.4049 C 0.0 **** 0.0
39441 C 21.4989 31.4628 20.3345 C 0.0 **** 0.0
39442 C 22.7877 30.849 20.8682 C 0.0 **** 0.0
39443 C 18.9736 31.387 21.0136 C 0.0 **** 0.0
39444 C 18.0196 32.0424 22.0427 C 0.0 **** 0.0
39445 C 18.307 31.37 23.3736 C 0.0 **** 0.0
39446 C 19.594 31.1567 23.751 C 0.0 **** 0.0
39447 C 19.96 30.597 25.1302 C 0.0 **** 0.0
39448 C 18.7066 30.4666 26.0557 C 0.0 **** 0.0
39449 C 17.5834 31.4537 25.7221 C 0.0 **** 0.0
39450 C 17.1775 31.1236 24.2947 C 0.0 **** 0.0
39451 C 22.125 35.6035 23.8967 C 0.0 **** 0.0
39452 C 21.5764 34.17 23.8424 C 0.0 **** 0.0
39453 C 23.3286 38.1088 24.283 C 0.0 **** 0.0
39454 C 21.8009 38.2496 24.6659 C 0.0 **** 0.0
39455 S 20.8258 36.6872 24.6316 S 0.0 **** 0.0
39456 C 21.1852 39.327 23.8562 C 0.0 **** 0.0
39457 C 21.7925 40.6433 24.2622 C 0.0 **** 0.0
39458 C 23.2949 40.662 23.9422 C 0.0 **** 0.0
39459 C 24.0123 39.4838 24.6501 C 0.0 **** 0.0
39460 C 23.8447 41.9846 24.4774 C 0.0 **** 0.0
39461 C 23.1234 43.1787 23.7914 C 0.0 **** 0.0
39462 C 21.5907 43.1501 24.0722 C 0.0 **** 0.0
39463 C 21.1217 41.8097 23.5241 C 0.0 **** 0.0
39464 C 20.7671 44.3795 23.5544 C 0.0 **** 0.0
39465 C 21.4986 45.7153 23.7052 C 0.0 **** 0.0
39466 C 23.0421 45.6997 23.4685 C 0.0 **** 0.0
39467 C 23.7457 44.5301 24.2326 C 0.0 **** 0.0
39468 C 25.505 39.4431 24.3773 C 0.0 **** 0.0
39469 C 26.1153 38.3102 25.2687 C 0.0 **** 0.0
39470 C 25.3399 42.0463 24.231 C 0.0 **** 0.0
39471 C 26.154 40.8143 24.8017 C 0.0 **** 0.0
39472 C 25.2447 44.537 23.9445 C 0.0 **** 0.0
39473 C 25.9083 43.3785 24.7044 C 0.0 **** 0.0
39474 C 23.6303 47.1101 23.6641 C 0.0 **** 0.0
39475 C 25.1682 47.0753 23.4592 C 0.0 **** 0.0
39476 C 25.8402 45.8883 24.2515 C 0.0 **** 0.0
39477 O 21.0865 46.4827 24.8231 O 0.0 **** 0.0
39478 C 20.841 45.6593 25.9567 C 0.0 **** 0.0
39479 C 19.6298 44.679 25.7412 C 0.0 **** 0.0
39480 C 19.3788 44.5136 24.2431 C 0.0 **** 0.0
39481 C 18.3718 45.0869 26.4789 C 0.0 **** 0.0
39482 C 18.6124 45.2111 27.9618 C 0.0 **** 0.0
39483 C 19.8056 46.12 28.3456 C 0.0 **** 0.0
39484 C 20.5867 46.6919 27.1071 C 0.0 **** 0.0
39485 C 21.9036 47.334 27.511 C 0.0 **** 0.0
39486 C 21.8822 47.6993 28.9439 C 0.0 **** 0.0
39487 C 21.6866 46.4182 29.8272 C 0.0 **** 0.0
39488 N 20.712 45.4767 29.281 N 0.0 **** 0.0
39489 C 27.6262 40.9405 24.2551 C 0.0 **** 0.0
39490 C 27.9363 42.2976 23.6001 C 0.0 **** 0.0
39491 C 27.4177 43.3873 24.5419 C 0.0 **** 0.0
39492 O 29.3153 42.4509 23.3852 O 0.0 **** 0.0
39493 C 29.7436 41.4148 22.5073 C 0.0 **** 0.0
39494 C 29.4512 39.9983 23.104 C 0.0 **** 0.0
39495 O 28.0798 39.8795 23.3872 O 0.0 **** 0.0
39496 C 30.3541 39.7145 24.341 C 0.0 **** 0.0
39497 C 31.812 39.9393 24.0393 C 0.0 **** 0.0
39498 C 32.1413 40.4633 22.6312 C 0.0 **** 0.0
39499 C 31.2566 41.6248 22.293 C 0.0 **** 0.0
39500 C 27.3334 45.8439 23.9303 C 0.0 **** 0.0
39501 C 28.0977 44.718 24.6421 C 0.0 **** 0.0
39502 C 25.7693 48.4298 23.8388 C 0.0 **** 0.0
39503 C 27.2932 48.4483 23.7898 C 0.0 **** 0.0
39504 C 27.9557 47.173 24.3081 C 0.0 **** 0.0
39505 C 25.1269 49.6906 23.1727 C 0.0 **** 0.0
39506 C 23.6023 49.5862 22.9663 C 0.0 **** 0.0
39507 C 23.0928 48.1546 22.643 C 0.0 **** 0.0
39508 O 27.7421 48.7043 22.5176 O 0.0 **** 0.0
39509 C 27.4149 50.0664 22.2743 C 0.0 **** 0.0
39510 C 25.9144 50.1651 21.9532 C 0.0 **** 0.0
39511 C 23.0082 50.7948 22.1917 C 0.0 **** 0.0
39512 C 24.0042 51.6124 21.2344 C 0.0 **** 0.0
39513 C 25.507 51.5802 21.6043 C 0.0 **** 0.0
39514 C 23.5993 53.0967 20.9714 C 0.0 **** 0.0
39515 C 22.1116 53.1296 20.749 C 0.0 **** 0.0
39516 C 21.4062 52.7442 22.0994 C 0.0 **** 0.0
39517 C 22.1831 51.7327 23.0593 C 0.0 **** 0.0
39518 C 26.2991 52.0461 20.356 C 0.0 **** 0.0
39519 C 27.8583 51.9503 20.5444 C 0.0 **** 0.0
39520 C 28.2236 50.5309 20.9969 C 0.0 **** 0.0
39521 C 24.4543 53.6924 19.7981 C 0.0 **** 0.0
39522 C 25.9638 53.4988 20.0291 C 0.0 **** 0.0
39523 C 19.0298 30.3856 27.5529 C 0.0 **** 0.0
39524 C 19.6224 31.722 28.0772 C 0.0 **** 0.0
39525 C 17.8985 29.8641 28.4695 C 0.0 **** 0.0
39526 O 18.6008 43.3391 24.006 O 0.0 **** 0.0
39527 C 29.7502 50.2536 21.1954 C 0.0 **** 0.0
39528 C 30.5275 51.5813 21.3347 C 0.0 **** 0.0
39529 C 29.7846 52.6333 22.1213 C 0.0 **** 0.0
39530 C 28.3696 52.9623 21.5724 C 0.0 **** 0.0
39531 C 28.0972 54.3918 21.0715 C 0.0 **** 0.0
39532 C 28.7538 55.3272 22.0718 C 0.0 **** 0.0
39533 C 30.2666 55.1287 21.8473 C 0.0 **** 0.0
39534 C 30.7178 53.8015 22.4832 C 0.0 **** 0.0
39535 C 31.0661 56.2616 22.528 C 0.0 **** 0.0
39536 C 30.5449 57.6712 22.1548 C 0.0 **** 0.0
39537 C 29.1058 57.7312 22.5914 C 0.0 **** 0.0
39538 C 28.3161 56.746 21.7517 C 0.0 **** 0.0
39539 C 26.7815 56.8793 21.8294 C 0.0 **** 0.0
39540 C 26.189 55.9654 20.7623 C 0.0 **** 0.0
39541 C 26.5648 54.5156 21.0517 C 0.0 **** 0.0
39542 C 26.4734 58.3147 21.4644 C 0.0 **** 0.0
39543 C 27.1397 59.25 22.492 C 0.0 **** 0.0
39544 C 28.6228 59.1592 22.3599 C 0.0 **** 0.0
39545 C 24.1822 55.161 19.4019 C 0.0 **** 0.0
39546 C 24.6732 56.1824 20.5206 C 0.0 **** 0.0
39547 C 24.9943 58.5749 21.2764 C 0.0 **** 0.0
39548 C 24.4741 57.6636 20.1135 C 0.0 **** 0.0
39549 C 23.0078 58.0049 19.7581 C 0.0 **** 0.0
39550 C 22.8185 59.5176 19.4953 C 0.0 **** 0.0
39551 C 23.3004 60.3347 20.671 C 0.0 **** 0.0
39552 C 24.709 59.9862 20.8309 C 0.0 **** 0.0
39553 O 25.5776 60.6078 20.2199 O 0.0 **** 0.0
39554 H 24.455 27.5771 27.8038 H 0.0 **** 0.0
39555 H 25.0591 28.7691 26.5713 H 0.0 **** 0.0
39556 H 24.3064 25.7955 26.3356 H 0.0 **** 0.0
39557 H 23.9225 27.1943 25.3325 H 0.0 **** 0.0
39558 H 26.5383 25.4206 25.5312 H 0.0 **** 0.0
39559 H 27.8722 26.9333 24.3271 H 0.0 **** 0.0
39560 H 27.5269 28.9567 26.3274 H 0.0 **** 0.0
39561 H 28.3263 27.3778 26.5706 H 0.0 **** 0.0
39562 H 25.9775 29.269 24.5809 H 0.0 **** 0.0
39563 H 24.3538 28.2363 23.2285 H 0.0 **** 0.0
39564 H 26.5718 26.4954 21.9982 H 0.0 **** 0.0
39565 H 24.8366 26.3079 21.7335 H 0.0 **** 0.0
39566 H 26.1028 24.7516 23.4049 H 0.0 **** 0.0
39567 H 24.4729 25.2908 23.6597 H 0.0 **** 0.0
39568 H 25.5952 30.622 20.7486 H 0.0 **** 0.0
39569 H 27.6893 30.3065 21.3154 H 0.0 **** 0.0
39570 H 28.3676 29.6779 23.8846 H 0.0 **** 0.0
39571 H 28.0976 28.4873 22.5643 H 0.0 **** 0.0
39572 H 24.5141 30.5446 23.6548 H 0.0 **** 0.0
39573 H 27.3023 34.8773 22.3189 H 0.0 **** 0.0
39574 H 28.0436 35.7141 23.6651 H 0.0 **** 0.0
39575 H 29.455 33.6815 24.0197 H 0.0 **** 0.0
39576 H 29.5955 34.377 22.3302 H 0.0 **** 0.0
39577 H 29.2869 31.9149 21.8849 H 0.0 **** 0.0
39578 H 22.2955 31.2638 24.1261 H 0.0 **** 0.0
39579 H 21.7054 32.482 19.9837 H 0.0 **** 0.0
39580 H 21.1019 30.8 19.5555 H 0.0 **** 0.0
39581 H 23.4944 30.478 20.1306 H 0.0 **** 0.0
39582 H 18.7504 31.8848 20.0222 H 0.0 **** 0.0
39583 H 18.7013 30.3198 20.9052 H 0.0 **** 0.0
39584 H 16.9623 31.9085 21.677 H 0.0 **** 0.0
39585 H 18.2526 33.1421 22.1181 H 0.0 **** 0.0
39586 H 20.5375 29.6531 24.9961 H 0.0 **** 0.0
39587 H 20.5851 31.4044 25.5309 H 0.0 **** 0.0
39588 H 18.2733 29.4529 25.8119 H 0.0 **** 0.0
39589 H 17.9961 32.474 25.8185 H 0.0 **** 0.0
39590 H 16.7424 31.3088 26.386 H 0.0 **** 0.0
39591 H 16.2882 31.6892 23.9438 H 0.0 **** 0.0
39592 H 16.8142 30.0372 24.233 H 0.0 **** 0.0
39593 H 20.6794 34.1366 23.2158 H 0.0 **** 0.0
39594 H 20.0929 39.3242 24.1259 H 0.0 **** 0.0
39595 H 20.0194 41.6888 23.4324 H 0.0 **** 0.0
39596 H 27.2044 38.2896 25.1845 H 0.0 **** 0.0
39597 H 21.7473 45.0927 26.182 H 0.0 **** 0.0
39598 H 19.9026 43.654 26.0826 H 0.0 **** 0.0
39599 H 18.8457 45.4002 23.8426 H 0.0 **** 0.0
39600 H 18.1098 46.0507 25.9665 H 0.0 **** 0.0
39601 H 17.6072 44.3028 26.3368 H 0.0 **** 0.0
39602 H 18.8089 44.1765 28.4052 H 0.0 **** 0.0
39603 H 17.6876 45.5894 28.366 H 0.0 **** 0.0
39604 H 19.3234 46.9717 28.9228 H 0.0 **** 0.0
39605 H 19.9442 47.5099 26.716 H 0.0 **** 0.0
39606 H 22.7689 46.634 27.3642 H 0.0 **** 0.0
39607 H 22.0154 48.2322 26.8812 H 0.0 **** 0.0
39608 H 21.0694 48.4028 29.1495 H 0.0 **** 0.0
39609 H 22.8211 48.2186 29.1611 H 0.0 **** 0.0
39610 H 21.3056 46.8023 30.8169 H 0.0 **** 0.0
39611 H 22.6842 45.9316 29.9648 H 0.0 **** 0.0
39612 H 21.2028 44.6343 28.9067 H 0.0 **** 0.0
39613 H 29.2068 41.5573 21.5084 H 0.0 **** 0.0
39614 H 29.7179 39.2629 22.3192 H 0.0 **** 0.0
39615 H 30.0386 40.338 25.2301 H 0.0 **** 0.0
39616 H 30.1904 38.6782 24.6561 H 0.0 **** 0.0
39617 H 32.3926 38.9882 24.1591 H 0.0 **** 0.0
39618 H 32.2057 40.6463 24.8009 H 0.0 **** 0.0
39619 H 31.9255 39.6673 21.9423 H 0.0 **** 0.0
39620 H 33.1841 40.7768 22.5351 H 0.0 **** 0.0
39621 H 31.4521 41.8288 21.2248 H 0.0 **** 0.0
39622 H 31.6643 42.444 22.8672 H 0.0 **** 0.0
39623 H 28.1309 45.0203 25.7021 H 0.0 **** 0.0
39624 H 29.0417 47.1765 24.0734 H 0.0 **** 0.0
39625 H 21.9544 48.217 22.7295 H 0.0 **** 0.0
39626 H 22.2294 50.326 21.4851 H 0.0 **** 0.0
39627 H 23.9106 51.0612 20.2421 H 0.0 **** 0.0
39628 H 23.7975 53.6739 21.9052 H 0.0 **** 0.0
39629 H 21.8003 52.4451 19.9588 H 0.0 **** 0.0
39630 H 21.8009 54.1244 20.3964 H 0.0 **** 0.0
39631 H 20.3825 52.333 21.9679 H 0.0 **** 0.0
39632 H 21.2494 53.7167 22.598 H 0.0 **** 0.0
39633 H 21.5288 51.1358 23.7246 H 0.0 **** 0.0
39634 H 22.8671 52.2933 23.7148 H 0.0 **** 0.0
39635 H 19.884 29.6007 27.7202 H 0.0 **** 0.0
39636 H 19.6087 31.7948 29.195 H 0.0 **** 0.0
39637 H 19.0629 32.544 27.645 H 0.0 **** 0.0
39638 H 20.6577 31.8279 27.7652 H 0.0 **** 0.0
39639 H 17.2384 30.6754 28.8294 H 0.0 **** 0.0
39640 H 18.2802 29.3329 29.3651 H 0.0 **** 0.0
39641 H 17.2876 29.1812 27.8971 H 0.0 **** 0.0
39642 H 17.6534 43.5303 24.2397 H 0.0 **** 0.0
39643 H 30.2416 49.8185 20.3227 H 0.0 **** 0.0
39644 H 31.4373 51.2843 21.8914 H 0.0 **** 0.0
39645 H 31.7398 53.6464 22.135 H 0.0 **** 0.0
39646 H 32.185 56.1642 22.3184 H 0.0 **** 0.0
39647 H 31.1539 58.311 22.8067 H 0.0 **** 0.0
39648 H 26.8162 60.3034 22.3171 H 0.0 **** 0.0
39649 H 29.0647 59.7365 23.2033 H 0.0 **** 0.0
39650 H 23.1051 55.353 19.0462 H 0.0 **** 0.0
39651 H 22.7094 57.4929 18.8215 H 0.0 **** 0.0
39652 H 22.3155 57.6881 20.549 H 0.0 **** 0.0
39653 H 21.7137 59.6728 19.3664 H 0.0 **** 0.0
39654 H 23.3494 59.8639 18.5914 H 0.0 **** 0.0
39655 H 22.7219 60.0514 21.5764 H 0.0 **** 0.0
39656 H 23.1993 61.4524 20.4227 H 0.0 **** 0.0
39657 C 17.4795 73.9345 41.844 C 0.0 **** 0.0
39658 C 17.7865 75.0324 42.8625 C 0.0 **** 0.0
39659 C 17.8908 76.4157 42.1783 C 0.0 **** 0.0
39660 C 18.4705 76.5347 40.7497 C 0.0 **** 0.0
39661 C 18.2276 75.1713 40.0432 C 0.0 **** 0.0
39662 O 17.0997 74.5016 40.5936 O 0.0 **** 0.0
39663 C 19.9312 77.0244 40.7296 C 0.0 **** 0.0
39664 C 20.1064 78.4789 41.2977 C 0.0 **** 0.0
39665 C 19.0553 78.7423 42.3772 C 0.0 **** 0.0
39666 C 18.5525 77.467 43.1175 C 0.0 **** 0.0
39667 O 20.0398 79.5538 40.3165 O 0.0 **** 0.0
39668 C 20.9811 79.4762 39.2545 C 0.0 **** 0.0
39669 C 20.7 78.1664 38.4635 C 0.0 **** 0.0
39670 C 20.6354 76.9107 39.3479 C 0.0 **** 0.0
39671 C 21.7682 77.9482 37.4163 C 0.0 **** 0.0
39672 C 23.1503 78.292 37.6824 C 0.0 **** 0.0
39673 C 23.3859 79.5376 38.5537 C 0.0 **** 0.0
39674 C 22.4765 79.5521 39.7591 C 0.0 **** 0.0
39675 C 24.9061 79.7209 38.892 C 0.0 **** 0.0
39676 C 25.7438 79.8457 37.6027 C 0.0 **** 0.0
39677 C 25.4633 78.7414 36.5996 C 0.0 **** 0.0
39678 C 23.9544 78.409 36.3599 C 0.0 **** 0.0
39679 C 23.9294 77.0074 35.7114 C 0.0 **** 0.0
39680 C 22.4903 76.5943 35.3272 C 0.0 **** 0.0
39681 C 21.4458 77.0727 36.3323 C 0.0 **** 0.0
39682 O 26.2175 78.7701 35.3982 O 0.0 **** 0.0
39683 C 26.1006 80.0467 34.7515 C 0.0 **** 0.0
39684 C 26.4459 81.2218 35.665 C 0.0 **** 0.0
39685 C 25.5741 81.165 36.9446 C 0.0 **** 0.0
39686 C 22.8423 80.7253 40.6391 C 0.0 **** 0.0
39687 C 24.294 80.8059 41.1182 C 0.0 **** 0.0
39688 C 25.211 80.9114 39.8704 C 0.0 **** 0.0
39689 C 24.6154 81.7989 42.174 C 0.0 **** 0.0
39690 C 23.6553 82.7117 42.4484 C 0.0 **** 0.0
39691 C 22.2417 82.6998 41.8747 C 0.0 **** 0.0
39692 C 21.9674 81.7382 40.8281 C 0.0 **** 0.0
39693 C 23.9129 83.7236 43.5221 C 0.0 **** 0.0
39694 C 25.3766 84.0751 43.6803 C 0.0 **** 0.0
39695 C 26.2526 82.8377 43.7109 C 0.0 **** 0.0
39696 C 25.9205 81.7486 42.9587 C 0.0 **** 0.0
39697 C 26.9841 80.5902 42.7869 C 0.0 **** 0.0
39698 C 27.9279 80.4317 44.02 C 0.0 **** 0.0
39699 C 28.5322 81.8188 44.38 C 0.0 **** 0.0
39700 C 27.3795 82.7949 44.7106 C 0.0 **** 0.0
39701 C 25.8914 82.2745 37.9305 C 0.0 **** 0.0
39702 C 25.0282 82.2305 39.205 C 0.0 **** 0.0
39703 C 26.3798 82.5573 34.9018 C 0.0 **** 0.0
39704 C 26.7768 83.6868 35.8642 C 0.0 **** 0.0
39705 S 25.5084 83.8616 37.1702 S 0.0 **** 0.0
39706 C 26.9854 85.0252 35.1022 C 0.0 **** 0.0
39707 C 28.0861 84.8043 34.0954 C 0.0 **** 0.0
39708 C 27.6219 83.8055 33.0415 C 0.0 **** 0.0
39709 C 27.3386 82.4639 33.6899 C 0.0 **** 0.0
39710 C 28.7082 83.609 31.9313 C 0.0 **** 0.0
39711 C 29.013 84.9927 31.3731 C 0.0 **** 0.0
39712 C 29.7365 85.8146 32.4659 C 0.0 **** 0.0
39713 C 28.6328 86.1298 33.5021 C 0.0 **** 0.0
39714 C 30.4317 87.0589 31.794 C 0.0 **** 0.0
39715 C 31.3719 86.6107 30.6311 C 0.0 **** 0.0
39716 C 30.5481 85.958 29.4533 C 0.0 **** 0.0
39717 C 29.7262 84.7882 30.0186 C 0.0 **** 0.0
39718 C 26.954 81.3518 32.7096 C 0.0 **** 0.0
39719 C 27.0787 80.0297 33.5529 C 0.0 **** 0.0
39720 C 28.38 82.5693 30.8817 C 0.0 **** 0.0
39721 C 27.8306 81.2755 31.4183 C 0.0 **** 0.0
39722 C 28.7156 84.2548 29.0257 C 0.0 **** 0.0
39723 C 27.7386 83.2572 29.6518 C 0.0 **** 0.0
39724 C 31.38 85.3507 28.2889 C 0.0 **** 0.0
39725 C 30.4631 84.6904 27.2048 C 0.0 **** 0.0
39726 C 29.504 83.6258 27.84 C 0.0 **** 0.0
39727 O 32.2242 87.6698 30.2262 O 0.0 **** 0.0
39728 C 33.2682 87.7206 31.1652 C 0.0 **** 0.0
39729 C 32.7172 87.8409 32.6488 C 0.0 **** 0.0
39730 C 31.1983 88.1152 32.687 C 0.0 **** 0.0
39731 C 33.3873 88.9252 33.4779 C 0.0 **** 0.0
39732 C 34.8866 88.8061 33.3712 C 0.0 **** 0.0
39733 C 35.3165 89.1886 31.9741 C 0.0 **** 0.0
39734 C 34.2956 88.905 30.8233 C 0.0 **** 0.0
39735 C 35.0221 88.6294 29.4952 C 0.0 **** 0.0
39736 C 36.274 89.4464 29.3391 C 0.0 **** 0.0
39737 C 37.2638 89.2464 30.5074 C 0.0 **** 0.0
39738 N 36.6324 88.6029 31.6821 N 0.0 **** 0.0
39739 C 27.1826 80.4441 30.2173 C 0.0 **** 0.0
39740 C 26.1775 81.3016 29.3491 C 0.0 **** 0.0
39741 C 26.9465 82.4083 28.6537 C 0.0 **** 0.0
39742 O 25.5111 80.5366 28.3797 O 0.0 **** 0.0
39743 C 24.9923 79.3405 28.8842 C 0.0 **** 0.0
39744 C 26.0208 78.5116 29.705 C 0.0 **** 0.0
39745 O 26.6752 79.2337 30.7242 O 0.0 **** 0.0
39746 C 26.9947 77.6161 28.8496 C 0.0 **** 0.0
39747 C 27.065 78.1283 27.3689 C 0.0 **** 0.0
39748 C 25.6805 78.1994 26.6977 C 0.0 **** 0.0
39749 C 24.5457 78.5029 27.6746 C 0.0 **** 0.0
39750 C 28.6438 82.9192 26.7886 C 0.0 **** 0.0
39751 C 27.8485 81.8616 27.5121 C 0.0 **** 0.0
39752 C 31.2974 83.9302 26.1895 C 0.0 **** 0.0
39753 C 30.3969 83.3646 25.0591 C 0.0 **** 0.0
39754 C 29.45 82.3309 25.6562 C 0.0 **** 0.0
39755 C 32.4836 84.7631 25.6166 C 0.0 **** 0.0
39756 C 32.5821 86.172 26.1483 C 0.0 **** 0.0
39757 C 32.3155 86.3867 27.6238 C 0.0 **** 0.0
39758 O 31.1998 82.7557 24.0384 O 0.0 **** 0.0
39759 C 31.6131 83.813 23.2479 C 0.0 **** 0.0
39760 C 32.3938 84.8883 24.1 C 0.0 **** 0.0
39761 C 33.8099 86.959 25.5876 C 0.0 **** 0.0
39762 C 34.0167 86.8248 24.0654 C 0.0 **** 0.0
39763 C 33.6905 85.4234 23.4736 C 0.0 **** 0.0
39764 C 35.476 87.1087 23.6159 C 0.0 **** 0.0
39765 C 36.0834 88.287 24.4406 C 0.0 **** 0.0
39766 C 36.0637 87.9516 25.9462 C 0.0 **** 0.0
39767 C 35.1483 86.7672 26.3243 C 0.0 **** 0.0
39768 C 33.5854 85.6716 21.9347 C 0.0 **** 0.0
39769 C 32.8572 84.5592 21.1497 C 0.0 **** 0.0
39770 C 32.3597 83.333 21.973 C 0.0 **** 0.0
39771 C 35.5589 87.3127 22.0748 C 0.0 **** 0.0
39772 C 34.9448 86.1423 21.3356 C 0.0 **** 0.0
39773 C 29.0872 79.3756 43.9344 C 0.0 **** 0.0
39774 C 30.3195 79.867 43.089 C 0.0 **** 0.0
39775 C 29.5473 78.792 45.2915 C 0.0 **** 0.0
39776 O 30.7381 88.2546 34.019 O 0.0 **** 0.0
39777 C 31.5031 82.4281 21.0841 C 0.0 **** 0.0
39778 C 32.2791 82.0621 19.7977 C 0.0 **** 0.0
39779 C 32.6532 83.3466 18.9842 C 0.0 **** 0.0
39780 C 33.5964 84.2174 19.8528 C 0.0 **** 0.0
39781 C 33.9081 85.4755 19.0507 C 0.0 **** 0.0
39782 C 34.5128 85.0988 17.6797 C 0.0 **** 0.0
39783 C 33.4619 84.3358 16.8769 C 0.0 **** 0.0
39784 C 33.1946 83.0572 17.579 C 0.0 **** 0.0
39785 C 33.8171 84.2134 15.4064 C 0.0 **** 0.0
39786 C 34.274 85.533 14.7586 C 0.0 **** 0.0
39787 C 35.4692 86.0227 15.5485 C 0.0 **** 0.0
39788 C 35.0044 86.325 16.9846 C 0.0 **** 0.0
39789 C 36.0425 87.1836 17.7892 C 0.0 **** 0.0
39790 C 36.1631 86.7824 19.2518 C 0.0 **** 0.0
39791 C 34.7942 86.5189 19.8434 C 0.0 **** 0.0
39792 C 37.4299 87.2943 17.1732 C 0.0 **** 0.0
39793 C 37.449 87.4913 15.6252 C 0.0 **** 0.0
39794 C 36.0763 87.2791 15.0034 C 0.0 **** 0.0
39795 C 36.9445 87.51 21.5147 C 0.0 **** 0.0
39796 C 36.8741 87.9056 20.0245 C 0.0 **** 0.0
39797 C 38.2227 88.4159 17.8579 C 0.0 **** 0.0
39798 C 38.2403 88.356 19.3958 C 0.0 **** 0.0
39799 C 38.8017 89.7176 19.9906 C 0.0 **** 0.0
39800 C 39.676 90.5289 19.0504 C 0.0 **** 0.0
39801 C 40.4383 89.6543 18.0124 C 0.0 **** 0.0
39802 C 39.6195 88.6173 17.3725 C 0.0 **** 0.0
39803 O 40.1044 87.9089 16.5283 O 0.0 **** 0.0
39804 H 16.664 73.3067 42.1932 H 0.0 **** 0.0
39805 H 18.3858 73.244 41.6949 H 0.0 **** 0.0
39806 H 16.9528 75.0574 43.6214 H 0.0 **** 0.0
39807 H 18.7876 74.7709 43.3648 H 0.0 **** 0.0
39808 H 16.827 76.7691 42.0756 H 0.0 **** 0.0
39809 H 17.8593 77.3331 40.166 H 0.0 **** 0.0
39810 H 19.1876 74.4924 40.0493 H 0.0 **** 0.0
39811 H 18.0067 75.356 38.9754 H 0.0 **** 0.0
39812 H 20.4872 76.3788 41.4628 H 0.0 **** 0.0
39813 H 21.083 78.5815 41.7953 H 0.0 **** 0.0
39814 H 18.1799 79.252 41.9593 H 0.0 **** 0.0
39815 H 19.5436 79.4229 43.1211 H 0.0 **** 0.0
39816 H 17.7777 77.6866 43.9231 H 0.0 **** 0.0
39817 H 19.4526 76.9894 43.5709 H 0.0 **** 0.0
39818 H 20.8498 80.3861 38.5988 H 0.0 **** 0.0
39819 H 19.7422 78.2356 37.9553 H 0.0 **** 0.0
39820 H 21.6839 76.6699 39.4826 H 0.0 **** 0.0
39821 H 20.2924 76.0872 38.7117 H 0.0 **** 0.0
39822 H 22.7109 78.6389 40.3026 H 0.0 **** 0.0
39823 H 24.5309 77.0605 34.7915 H 0.0 **** 0.0
39824 H 24.3044 76.2175 36.4392 H 0.0 **** 0.0
39825 H 22.4621 75.4677 35.2865 H 0.0 **** 0.0
39826 H 22.2529 77.0097 34.344 H 0.0 **** 0.0
39827 H 20.4297 76.8113 36.0847 H 0.0 **** 0.0
39828 H 24.5259 79.8264 41.5654 H 0.0 **** 0.0
39829 H 21.9806 83.6931 41.5352 H 0.0 **** 0.0
39830 H 21.527 82.3823 42.6892 H 0.0 **** 0.0
39831 H 21.0031 81.7947 40.4451 H 0.0 **** 0.0
39832 H 23.2632 84.5981 43.3877 H 0.0 **** 0.0
39833 H 23.518 83.2843 44.5056 H 0.0 **** 0.0
39834 H 25.4417 84.6268 44.618 H 0.0 **** 0.0
39835 H 25.7125 84.7599 42.9058 H 0.0 **** 0.0
39836 H 26.5125 79.6285 42.5877 H 0.0 **** 0.0
39837 H 27.5244 80.7918 41.8516 H 0.0 **** 0.0
39838 H 27.272 80.1459 44.8783 H 0.0 **** 0.0
39839 H 29.1323 82.2296 43.5434 H 0.0 **** 0.0
39840 H 29.2096 81.6843 45.2565 H 0.0 **** 0.0
39841 H 27.8536 83.7743 44.8222 H 0.0 **** 0.0
39842 H 26.9788 82.4195 45.6803 H 0.0 **** 0.0
39843 H 25.2278 83.0756 39.8971 H 0.0 **** 0.0
39844 H 27.3262 85.8074 35.8464 H 0.0 **** 0.0
39845 H 29.0395 86.6875 34.3284 H 0.0 **** 0.0
39846 H 28.1452 79.7076 33.8024 H 0.0 **** 0.0
39847 H 33.8948 86.7911 31.174 H 0.0 **** 0.0
39848 H 32.9173 86.8595 33.1307 H 0.0 **** 0.0
39849 H 30.995 89.11 32.1012 H 0.0 **** 0.0
39850 H 32.9803 89.9095 33.163 H 0.0 **** 0.0
39851 H 33.1144 88.8297 34.526 H 0.0 **** 0.0
39852 H 35.2269 87.7601 33.6699 H 0.0 **** 0.0
39853 H 35.3046 89.4579 34.1776 H 0.0 **** 0.0
39854 H 35.4582 90.2889 31.9151 H 0.0 **** 0.0
39855 H 33.6806 89.8288 30.6763 H 0.0 **** 0.0
39856 H 35.3912 87.5424 29.4563 H 0.0 **** 0.0
39857 H 34.3495 88.8252 28.6624 H 0.0 **** 0.0
39858 H 35.9446 90.5129 29.2359 H 0.0 **** 0.0
39859 H 36.7267 89.175 28.3555 H 0.0 **** 0.0
39860 H 37.6953 90.2117 30.8338 H 0.0 **** 0.0
39861 H 38.0684 88.6031 30.145 H 0.0 **** 0.0
39862 H 36.456 87.5837 31.5264 H 0.0 **** 0.0
39863 H 24.1027 79.5293 29.5535 H 0.0 **** 0.0
39864 H 25.4097 77.7599 30.3069 H 0.0 **** 0.0
39865 H 28.0009 77.6925 29.3354 H 0.0 **** 0.0
39866 H 26.7488 76.5525 28.8866 H 0.0 **** 0.0
39867 H 27.6485 77.4767 26.7004 H 0.0 **** 0.0
39868 H 27.63 79.0894 27.2411 H 0.0 **** 0.0
39869 H 25.4311 77.2482 26.1745 H 0.0 **** 0.0
39870 H 25.6861 78.9663 25.8393 H 0.0 **** 0.0
39871 H 24.1308 77.5542 28.0529 H 0.0 **** 0.0
39872 H 23.7795 79.0923 27.0492 H 0.0 **** 0.0
39873 H 27.1479 81.46 26.759 H 0.0 **** 0.0
39874 H 28.7631 81.9841 24.898 H 0.0 **** 0.0
39875 H 33.2405 86.4258 28.2828 H 0.0 **** 0.0
39876 H 33.5825 88.038 25.8035 H 0.0 **** 0.0
39877 H 33.2928 87.5041 23.6088 H 0.0 **** 0.0
39878 H 36.0963 86.1884 23.8412 H 0.0 **** 0.0
39879 H 35.4235 89.1672 24.2413 H 0.0 **** 0.0
39880 H 37.1221 88.4877 24.1335 H 0.0 **** 0.0
39881 H 35.7175 88.8874 26.4565 H 0.0 **** 0.0
39882 H 37.1115 87.6788 26.2044 H 0.0 **** 0.0
39883 H 35.0629 86.8101 27.3679 H 0.0 **** 0.0
39884 H 35.6787 85.7814 26.0718 H 0.0 **** 0.0
39885 H 28.5878 78.5494 43.3854 H 0.0 **** 0.0
39886 H 31.0191 78.9764 42.9311 H 0.0 **** 0.0
39887 H 30.9333 80.6317 43.696 H 0.0 **** 0.0
39888 H 29.9575 80.3307 42.1452 H 0.0 **** 0.0
39889 H 28.8183 79.0551 46.1127 H 0.0 **** 0.0
39890 H 30.5489 79.2038 45.5249 H 0.0 **** 0.0
39891 H 29.743 77.6743 45.3375 H 0.0 **** 0.0
39892 H 30.0521 88.9549 33.9684 H 0.0 **** 0.0
39893 H 31.183 81.4867 21.5966 H 0.0 **** 0.0
39894 H 31.711 81.3721 19.1715 H 0.0 **** 0.0
39895 H 32.4524 82.4525 17.0188 H 0.0 **** 0.0
39896 H 33.0373 83.7033 14.8188 H 0.0 **** 0.0
39897 H 34.5491 85.3566 13.6946 H 0.0 **** 0.0
39898 H 38.2015 86.797 15.1939 H 0.0 **** 0.0
39899 H 36.1664 87.1734 13.9067 H 0.0 **** 0.0
39900 H 37.4206 88.3477 22.0246 H 0.0 **** 0.0
39901 H 37.9631 90.3028 20.3553 H 0.0 **** 0.0
39902 H 39.4679 89.4614 20.857 H 0.0 **** 0.0
39903 H 40.3903 91.1361 19.5625 H 0.0 **** 0.0
39904 H 39.0198 91.2407 18.4632 H 0.0 **** 0.0
39905 H 41.2817 89.1486 18.5739 H 0.0 **** 0.0
39906 H 40.8797 90.3286 17.2635 H 0.0 **** 0.0
39907 C 68.3748 0.233077 47.6651 C 0.0 **** 0.0
39908 C 68.8857 -0.757928 46.5929 C 0.0 **** 0.0
39909 C 69.9646 -0.138109 45.6969 C 0.0 **** 0.0
39910 C 69.5612 1.28894 45.181 C 0.0 **** 0.0
39911 C 68.3752 1.8299 46.0176 C 0.0 **** 0.0
39912 O 68.6227 1.588 47.3636 O 0.0 **** 0.0
39913 C 69.2211 1.25848 43.6716 C 0.0 **** 0.0
39914 C 70.4198 0.697831 42.8333 C 0.0 **** 0.0
39915 C 71.0679 -0.561344 43.4377 C 0.0 **** 0.0
39916 C 70.2183 -1.15378 44.5409 C 0.0 **** 0.0
39917 O 71.4247 1.68672 42.7265 O 0.0 **** 0.0
39918 C 71.0877 2.85743 42.0269 C 0.0 **** 0.0
39919 C 69.8357 3.55452 42.6494 C 0.0 **** 0.0
39920 C 68.701 2.54918 42.9683 C 0.0 **** 0.0
39921 C 69.363 4.67048 41.7527 C 0.0 **** 0.0
39922 C 69.166 4.37504 40.376 C 0.0 **** 0.0
39923 C 70.4333 3.83975 39.7804 C 0.0 **** 0.0
39924 C 70.972 2.58073 40.5117 C 0.0 **** 0.0
39925 C 70.3233 3.54473 38.2766 C 0.0 **** 0.0
39926 C 69.8881 4.80223 37.4974 C 0.0 **** 0.0
39927 C 68.55 5.3536 38.0535 C 0.0 **** 0.0
39928 C 68.7071 5.61825 39.5841 C 0.0 **** 0.0
39929 C 69.5335 6.85313 39.8712 C 0.0 **** 0.0
39930 C 69.3592 7.17778 41.3556 C 0.0 **** 0.0
39931 C 69.6373 5.98982 42.1914 C 0.0 **** 0.0
39932 O 67.9848 6.40261 37.274 O 0.0 **** 0.0
39933 C 68.873 6.90623 36.3184 C 0.0 **** 0.0
39934 C 69.2063 5.76102 35.3237 C 0.0 **** 0.0
39935 C 69.7922 4.54106 36.013 C 0.0 **** 0.0
39936 C 72.268 2.1348 39.8542 C 0.0 **** 0.0
39937 C 72.0146 1.70486 38.4357 C 0.0 **** 0.0
39938 C 71.6692 3.04534 37.6896 C 0.0 **** 0.0
39939 C 73.224 1.02586 37.8686 C 0.0 **** 0.0
39940 C 74.4465 1.60552 38.0521 C 0.0 **** 0.0
39941 C 74.6372 2.56935 39.1595 C 0.0 **** 0.0
39942 C 73.5058 2.60804 40.1954 C 0.0 **** 0.0
39943 C 75.5812 1.26327 37.1022 C 0.0 **** 0.0
39944 C 75.0563 0.837564 35.6992 C 0.0 **** 0.0
39945 C 73.8909 -0.063491 35.7566 C 0.0 **** 0.0
39946 C 73.0865 -0.0373643 36.8437 C 0.0 **** 0.0
39947 C 72.1019 -1.15716 37.0449 C 0.0 **** 0.0
39948 C 71.1903 -1.32856 35.8122 C 0.0 **** 0.0
39949 C 71.9365 -0.926196 34.4937 C 0.0 **** 0.0
39950 C 73.4648 -0.974389 34.6021 C 0.0 **** 0.0
39951 C 71.1495 4.16334 35.4554 C 0.0 **** 0.0
39952 C 71.6215 2.89852 36.168 C 0.0 **** 0.0
39953 C 69.8775 6.2457 34.0511 C 0.0 **** 0.0
39954 C 69.9489 5.11802 33.0885 C 0.0 **** 0.0
39955 S 70.9175 3.72469 33.6791 S 0.0 **** 0.0
39956 C 70.5437 5.59725 31.7266 C 0.0 **** 0.0
39957 C 69.745 6.76974 31.1391 C 0.0 **** 0.0
39958 C 69.6119 7.88775 32.1185 C 0.0 **** 0.0
39959 C 69.1287 7.46112 33.4762 C 0.0 **** 0.0
39960 C 68.7012 8.99897 31.5644 C 0.0 **** 0.0
39961 C 69.2744 9.53919 30.2482 C 0.0 **** 0.0
39962 C 69.5261 8.36156 29.3131 C 0.0 **** 0.0
39963 C 70.4598 7.37654 29.9627 C 0.0 **** 0.0
39964 C 70.0623 8.88425 27.9699 C 0.0 **** 0.0
39965 C 69.2668 10.054 27.3847 C 0.0 **** 0.0
39966 C 69.0551 11.1542 28.3839 C 0.0 **** 0.0
39967 C 68.337 10.5279 29.5725 C 0.0 **** 0.0
39968 C 69.2212 8.54824 34.5228 C 0.0 **** 0.0
39969 C 68.2706 8.1644 35.65 C 0.0 **** 0.0
39970 C 68.3314 10.0781 32.6019 C 0.0 **** 0.0
39971 C 69.1831 9.96889 33.8809 C 0.0 **** 0.0
39972 C 67.6555 11.5072 30.5867 C 0.0 **** 0.0
39973 C 68.3608 11.4967 31.9759 C 0.0 **** 0.0
39974 C 68.341 12.3754 27.8112 C 0.0 **** 0.0
39975 C 67.1371 12.9581 28.634 C 0.0 **** 0.0
39976 C 67.5576 12.9399 30.0806 C 0.0 **** 0.0
39977 O 70.0059 10.5674 26.3002 O 0.0 **** 0.0
39978 C 69.8221 9.7596 25.1492 C 0.0 **** 0.0
39979 C 69.66 8.24702 25.4875 C 0.0 **** 0.0
39980 C 70.2609 7.83714 26.8462 C 0.0 **** 0.0
39981 C 70.1495 7.33072 24.366 C 0.0 **** 0.0
39982 C 70.0507 7.94812 22.9554 C 0.0 **** 0.0
39983 C 70.9913 9.14638 22.8323 C 0.0 **** 0.0
39984 C 70.9746 10.0422 24.1049 C 0.0 **** 0.0
39985 C 70.9996 11.579 23.746 C 0.0 **** 0.0
39986 C 71.8829 11.8735 22.5156 C 0.0 **** 0.0
39987 C 71.6097 10.9129 21.3173 C 0.0 **** 0.0
39988 N 70.5815 9.90105 21.6212 N 0.0 **** 0.0
39989 C 68.7177 11.0265 34.9066 C 0.0 **** 0.0
39990 C 68.558 12.401 34.2687 C 0.0 **** 0.0
39991 C 67.6579 12.406 32.9959 C 0.0 **** 0.0
39992 O 68.0422 13.2897 35.239 O 0.0 **** 0.0
39993 C 69.036 13.4266 36.2284 C 0.0 **** 0.0
39994 C 69.5138 12.0603 36.8679 C 0.0 **** 0.0
39995 O 69.7289 11.0751 35.8922 O 0.0 **** 0.0
39996 C 68.5713 11.5345 37.9664 C 0.0 **** 0.0
39997 C 67.1996 12.2273 37.9305 C 0.0 **** 0.0
39998 C 67.2574 13.7665 37.9985 C 0.0 **** 0.0
39999 C 68.4829 14.3552 37.2843 C 0.0 **** 0.0
40000 C 66.6838 13.7766 31.0183 C 0.0 **** 0.0
40001 C 67.4075 13.8431 32.4197 C 0.0 **** 0.0
40002 C 66.9396 14.4175 28.1567 C 0.0 **** 0.0
40003 C 66.0144 15.2844 29.0587 C 0.0 **** 0.0
40004 C 66.4753 15.1903 30.5086 C 0.0 **** 0.0
40005 C 66.6131 14.5397 26.688 C 0.0 **** 0.0
40006 C 67.7256 13.841 25.9149 C 0.0 **** 0.0
40007 C 67.9711 12.3977 26.3058 C 0.0 **** 0.0
40008 O 66.0875 16.6359 28.6076 O 0.0 **** 0.0
40009 C 65.6147 16.7267 27.2977 C 0.0 **** 0.0
40010 C 66.5902 16.0221 26.36 C 0.0 **** 0.0
40011 C 67.9096 14.1834 24.4394 C 0.0 **** 0.0
40012 C 67.5879 15.6765 24.1099 C 0.0 **** 0.0
40013 C 66.4005 16.2978 24.8477 C 0.0 **** 0.0
40014 C 67.2784 15.8669 22.6071 C 0.0 **** 0.0
40015 C 68.1138 14.8549 21.7531 C 0.0 **** 0.0
40016 C 67.6862 13.4046 21.9757 C 0.0 **** 0.0
40017 C 67.1944 13.2129 23.4607 C 0.0 **** 0.0
40018 C 66.3846 17.7868 24.563 C 0.0 **** 0.0
40019 C 65.1923 18.3564 25.3169 C 0.0 **** 0.0
40020 C 65.3404 18.1654 26.8531 C 0.0 **** 0.0
40021 C 67.4614 17.4015 22.3124 C 0.0 **** 0.0
40022 C 66.3038 18.0858 23.0468 C 0.0 **** 0.0
40023 C 69.8224 -0.584268 36.0143 C 0.0 **** 0.0
40024 C 69.0499 -0.402714 34.7063 C 0.0 **** 0.0
40025 C 68.9292 -1.30426 37.0021 C 0.0 **** 0.0
40026 O 69.6202 6.64265 27.2016 O 0.0 **** 0.0
40027 C 64.1633 18.7982 27.614 C 0.0 **** 0.0
40028 C 64.0924 20.3159 27.3101 C 0.0 **** 0.0
40029 C 63.96 20.5135 25.7981 C 0.0 **** 0.0
40030 C 65.1051 19.8641 25.0271 C 0.0 **** 0.0
40031 C 64.9923 20.1223 23.5387 C 0.0 **** 0.0
40032 C 64.9531 21.6565 23.3035 C 0.0 **** 0.0
40033 C 63.6894 22.2368 23.9788 C 0.0 **** 0.0
40034 C 63.696 21.9828 25.5176 C 0.0 **** 0.0
40035 C 63.5169 23.7295 23.7078 C 0.0 **** 0.0
40036 C 63.5942 24.0604 22.234 C 0.0 **** 0.0
40037 C 64.8518 23.5487 21.5869 C 0.0 **** 0.0
40038 C 64.9292 21.9986 21.79 C 0.0 **** 0.0
40039 C 66.0766 21.3494 20.9982 C 0.0 **** 0.0
40040 C 66.1524 19.8867 21.3029 C 0.0 **** 0.0
40041 C 66.236 19.577 22.8147 C 0.0 **** 0.0
40042 C 65.8928 21.6499 19.5586 C 0.0 **** 0.0
40043 C 65.9816 23.1425 19.3585 C 0.0 **** 0.0
40044 C 64.8722 23.8658 20.1035 C 0.0 **** 0.0
40045 C 67.4051 17.7633 20.8212 C 0.0 **** 0.0
40046 C 67.3887 19.3047 20.5513 C 0.0 **** 0.0
40047 C 66.9361 20.9729 18.603 C 0.0 **** 0.0
40048 C 67.2399 19.5279 19.0042 C 0.0 **** 0.0
40049 C 68.4341 19.0135 18.1784 C 0.0 **** 0.0
40050 C 68.6713 19.7555 16.8165 C 0.0 **** 0.0
40051 C 67.3416 20.2057 16.206 C 0.0 **** 0.0
40052 C 66.5031 20.9271 17.127 C 0.0 **** 0.0
40053 O 65.4114 21.3372 16.7584 O 0.0 **** 0.0
40054 H 68.8886 0.0299779 48.6171 H 0.0 **** 0.0
40055 H 67.3074 0.109503 47.8436 H 0.0 **** 0.0
40056 H 69.2626 -1.68282 47.0756 H 0.0 **** 0.0
40057 H 68.0083 -1.01279 46.0231 H 0.0 **** 0.0
40058 H 70.86 0.0321027 46.308 H 0.0 **** 0.0
40059 H 70.4578 1.93666 45.2906 H 0.0 **** 0.0
40060 H 67.4057 1.48405 45.7019 H 0.0 **** 0.0
40061 H 68.3256 2.95727 45.9264 H 0.0 **** 0.0
40062 H 68.3637 0.515492 43.5016 H 0.0 **** 0.0
40063 H 70.0301 0.417162 41.8045 H 0.0 **** 0.0
40064 H 72.0431 -0.300546 43.9423 H 0.0 **** 0.0
40065 H 71.2133 -1.36813 42.6099 H 0.0 **** 0.0
40066 H 70.6388 -2.09118 44.9541 H 0.0 **** 0.0
40067 H 69.2671 -1.54037 44.0554 H 0.0 **** 0.0
40068 H 71.934 3.54704 42.2052 H 0.0 **** 0.0
40069 H 70.0552 3.98562 43.5937 H 0.0 **** 0.0
40070 H 68.1858 2.239 41.9965 H 0.0 **** 0.0
40071 H 67.8921 2.95737 43.5881 H 0.0 **** 0.0
40072 H 70.2063 1.80506 40.3495 H 0.0 **** 0.0
40073 H 70.584 6.64099 39.7034 H 0.0 **** 0.0
40074 H 69.131 7.71683 39.2378 H 0.0 **** 0.0
40075 H 68.286 7.37241 41.573 H 0.0 **** 0.0
40076 H 69.9567 8.0135 41.6699 H 0.0 **** 0.0
40077 H 69.9783 6.2182 43.1906 H 0.0 **** 0.0
40078 H 71.1284 1.05571 38.4098 H 0.0 **** 0.0
40079 H 74.8265 3.57813 38.7552 H 0.0 **** 0.0
40080 H 75.5427 2.25706 39.7041 H 0.0 **** 0.0
40081 H 73.6646 3.08949 41.1238 H 0.0 **** 0.0
40082 H 76.2332 2.16093 36.9594 H 0.0 **** 0.0
40083 H 76.1851 0.425014 37.5185 H 0.0 **** 0.0
40084 H 75.8505 0.417598 35.0834 H 0.0 **** 0.0
40085 H 74.7798 1.76479 35.1115 H 0.0 **** 0.0
40086 H 72.6938 -2.09616 37.1983 H 0.0 **** 0.0
40087 H 71.5518 -1.02984 37.9858 H 0.0 **** 0.0
40088 H 70.9614 -2.4486 35.7162 H 0.0 **** 0.0
40089 H 71.6808 0.133562 34.2928 H 0.0 **** 0.0
40090 H 71.5662 -1.4707 33.5825 H 0.0 **** 0.0
40091 H 73.9571 -0.759609 33.6272 H 0.0 **** 0.0
40092 H 73.7022 -2.07719 34.8403 H 0.0 **** 0.0
40093 H 72.5578 2.52727 35.7441 H 0.0 **** 0.0
40094 H 70.4986 4.72509 30.9859 H 0.0 **** 0.0
40095 H 70.88 6.6352 29.2341 H 0.0 **** 0.0
40096 H 67.2684 7.91155 35.2821 H 0.0 **** 0.0
40097 H 68.9647 10.1104 24.6509 H 0.0 **** 0.0
40098 H 68.6018 8.11886 25.5619 H 0.0 **** 0.0
40099 H 71.3475 7.6662 26.7808 H 0.0 **** 0.0
40100 H 71.2751 7.03559 24.5284 H 0.0 **** 0.0
40101 H 69.5122 6.39232 24.3637 H 0.0 **** 0.0
40102 H 68.9793 8.25923 22.7267 H 0.0 **** 0.0
40103 H 70.3377 7.22409 22.1131 H 0.0 **** 0.0
40104 H 72.0588 8.74824 22.7122 H 0.0 **** 0.0
40105 H 71.9481 9.84505 24.6845 H 0.0 **** 0.0
40106 H 69.94 11.9602 23.5719 H 0.0 **** 0.0
40107 H 71.4457 12.1224 24.625 H 0.0 **** 0.0
40108 H 72.9664 11.7596 22.7895 H 0.0 **** 0.0
40109 H 71.71 12.9125 22.2505 H 0.0 **** 0.0
40110 H 72.5135 10.3806 21.0623 H 0.0 **** 0.0
40111 H 71.3303 11.4507 20.4144 H 0.0 **** 0.0
40112 H 70.5853 9.22159 20.8238 H 0.0 **** 0.0
40113 H 69.9637 13.9076 35.8396 H 0.0 **** 0.0
40114 H 70.5175 12.2621 37.3492 H 0.0 **** 0.0
40115 H 68.4049 10.4565 37.9133 H 0.0 **** 0.0
40116 H 69.0803 11.6725 38.9612 H 0.0 **** 0.0
40117 H 66.5136 11.9102 38.7607 H 0.0 **** 0.0
40118 H 66.7139 12.0099 37.0061 H 0.0 **** 0.0
40119 H 67.257 14.1396 39.0343 H 0.0 **** 0.0
40120 H 66.3272 14.1311 37.5199 H 0.0 **** 0.0
40121 H 69.2942 14.4217 38.0639 H 0.0 **** 0.0
40122 H 68.2715 15.3542 36.8579 H 0.0 **** 0.0
40123 H 66.9048 14.52 33.1984 H 0.0 **** 0.0
40124 H 65.7736 15.8286 31.1454 H 0.0 **** 0.0
40125 H 67.0603 11.8254 26.1848 H 0.0 **** 0.0
40126 H 69.012 14.0676 24.2271 H 0.0 **** 0.0
40127 H 68.5311 16.2128 24.3856 H 0.0 **** 0.0
40128 H 66.2126 15.5908 22.407 H 0.0 **** 0.0
40129 H 69.1849 14.9807 21.8797 H 0.0 **** 0.0
40130 H 67.8812 15.0687 20.7048 H 0.0 **** 0.0
40131 H 68.6324 12.7936 21.8455 H 0.0 **** 0.0
40132 H 66.8838 12.9957 21.2477 H 0.0 **** 0.0
40133 H 67.2829 12.1459 23.7766 H 0.0 **** 0.0
40134 H 66.0769 13.3631 23.5236 H 0.0 **** 0.0
40135 H 70.1459 0.394429 36.4093 H 0.0 **** 0.0
40136 H 68.9981 -1.40075 34.2279 H 0.0 **** 0.0
40137 H 69.4952 0.297266 33.9915 H 0.0 **** 0.0
40138 H 68.0189 -0.0599751 34.9112 H 0.0 **** 0.0
40139 H 68.105 -0.655426 37.1818 H 0.0 **** 0.0
40140 H 69.3895 -1.50363 37.9994 H 0.0 **** 0.0
40141 H 68.5177 -2.29256 36.6629 H 0.0 **** 0.0
40142 H 69.981 5.90651 26.6526 H 0.0 **** 0.0
40143 H 64.3155 18.7552 28.6728 H 0.0 **** 0.0
40144 H 63.1847 20.7477 27.8362 H 0.0 **** 0.0
40145 H 62.7042 22.2441 25.9602 H 0.0 **** 0.0
40146 H 62.5108 23.9579 24.0769 H 0.0 **** 0.0
40147 H 63.5754 25.1533 22.085 H 0.0 **** 0.0
40148 H 65.8474 23.4158 18.2559 H 0.0 **** 0.0
40149 H 65.0093 24.9631 19.8734 H 0.0 **** 0.0
40150 H 68.3025 17.2689 20.3615 H 0.0 **** 0.0
40151 H 69.365 19.0706 18.7854 H 0.0 **** 0.0
40152 H 68.2956 17.9037 18.0255 H 0.0 **** 0.0
40153 H 69.1498 19.066 16.1138 H 0.0 **** 0.0
40154 H 69.2815 20.6323 16.9504 H 0.0 **** 0.0
40155 H 66.8047 19.2965 15.7781 H 0.0 **** 0.0
40156 H 67.5644 20.8169 15.3089 H 0.0 **** 0.0
40157 C 75.2129 79.4505 37.7165 C 0.0 **** 0.0
40158 C 74.4313 79.2839 36.3683 C 0.0 **** 0.0
40159 C 73.4478 78.0719 36.4706 C 0.0 **** 0.0
40160 C 73.9861 76.9964 37.386 C 0.0 **** 0.0
40161 C 74.3645 77.6313 38.7908 C 0.0 **** 0.0
40162 O 74.4087 79.0305 38.7806 O 0.0 **** 0.0
40163 C 75.2045 76.2071 36.767 C 0.0 **** 0.0
40164 C 75.2085 76.2141 35.2018 C 0.0 **** 0.0
40165 C 73.7913 76.2814 34.6102 C 0.0 **** 0.0
40166 C 73.0349 77.5306 35.0663 C 0.0 **** 0.0
40167 O 75.8298 75.0455 34.6393 O 0.0 **** 0.0
40168 C 76.8452 74.4324 35.4207 C 0.0 **** 0.0
40169 C 76.2223 73.8579 36.7621 C 0.0 **** 0.0
40170 C 75.1854 74.8065 37.3798 C 0.0 **** 0.0
40171 C 77.2724 73.4527 37.7726 C 0.0 **** 0.0
40172 C 78.516 74.1742 37.8241 C 0.0 **** 0.0
40173 C 79.077 74.3946 36.4369 C 0.0 **** 0.0
40174 C 78.1385 75.269 35.6006 C 0.0 **** 0.0
40175 C 80.5593 74.7336 36.4679 C 0.0 **** 0.0
40176 C 81.2608 73.417 36.8604 C 0.0 **** 0.0
40177 C 80.6984 72.786 38.1547 C 0.0 **** 0.0
40178 C 79.5741 73.6214 38.764 C 0.0 **** 0.0
40179 C 78.9535 73.0954 40.0483 C 0.0 **** 0.0
40180 C 77.922 71.9928 39.7348 C 0.0 **** 0.0
40181 C 77.0328 72.3287 38.5997 C 0.0 **** 0.0
40182 O 81.7127 72.6309 39.1228 O 0.0 **** 0.0
40183 C 82.6376 71.7274 38.5324 C 0.0 **** 0.0
40184 C 83.5318 72.5167 37.5566 C 0.0 **** 0.0
40185 C 82.783 73.6394 36.8661 C 0.0 **** 0.0
40186 C 78.8676 75.7228 34.2771 C 0.0 **** 0.0
40187 C 80.2129 76.3363 34.542 C 0.0 **** 0.0
40188 C 81.0758 75.1306 35.0555 C 0.0 **** 0.0
40189 C 80.8554 77.0475 33.3507 C 0.0 **** 0.0
40190 C 80.4655 76.7865 32.0869 C 0.0 **** 0.0
40191 C 79.1564 76.0707 31.7909 C 0.0 **** 0.0
40192 C 78.3999 75.6316 32.9977 C 0.0 **** 0.0
40193 C 81.2367 77.2811 30.8916 C 0.0 **** 0.0
40194 C 82.6458 77.7528 31.2127 C 0.0 **** 0.0
40195 C 82.7625 78.3483 32.5944 C 0.0 **** 0.0
40196 C 81.8844 78.083 33.5803 C 0.0 **** 0.0
40197 C 81.9366 78.7811 34.9598 C 0.0 **** 0.0
40198 C 83.0166 79.8287 35.1013 C 0.0 **** 0.0
40199 C 84.279 79.3315 34.3514 C 0.0 **** 0.0
40200 C 83.9733 79.213 32.8358 C 0.0 **** 0.0
40201 C 83.2349 73.8395 35.4191 C 0.0 **** 0.0
40202 C 82.6043 75.1521 34.9341 C 0.0 **** 0.0
40203 C 84.2081 71.5161 36.6847 C 0.0 **** 0.0
40204 C 85.3288 72.0258 35.7511 C 0.0 **** 0.0
40205 S 85.0973 73.7696 35.1491 S 0.0 **** 0.0
40206 C 85.5548 70.992 34.6395 C 0.0 **** 0.0
40207 C 86.1174 69.762 35.3206 C 0.0 **** 0.0
40208 C 85.2809 69.3078 36.5563 C 0.0 **** 0.0
40209 C 84.9871 70.479 37.4789 C 0.0 **** 0.0
40210 C 86.0704 68.212 37.2535 C 0.0 **** 0.0
40211 C 86.1765 66.9603 36.3474 C 0.0 **** 0.0
40212 C 86.8562 67.3187 35.0082 C 0.0 **** 0.0
40213 C 86.2369 68.5727 34.3358 C 0.0 **** 0.0
40214 C 86.8572 66.0441 34.097 C 0.0 **** 0.0
40215 C 87.7286 64.9539 34.7465 C 0.0 **** 0.0
40216 C 88.0285 65.0337 36.2764 C 0.0 **** 0.0
40217 C 86.7993 65.6538 36.9799 C 0.0 **** 0.0
40218 C 84.5749 70.1758 38.9855 C 0.0 **** 0.0
40219 C 83.6104 71.2075 39.5755 C 0.0 **** 0.0
40220 C 85.6738 67.9328 38.7476 C 0.0 **** 0.0
40221 C 84.3942 68.6561 39.2449 C 0.0 **** 0.0
40222 C 86.944 65.7605 38.4991 C 0.0 **** 0.0
40223 C 85.6542 66.4476 39.0651 C 0.0 **** 0.0
40224 C 88.3775 63.6437 36.9086 C 0.0 **** 0.0
40225 C 88.3121 63.6342 38.4938 C 0.0 **** 0.0
40226 C 87.0159 64.3001 38.9714 C 0.0 **** 0.0
40227 O 88.6835 64.3191 33.9131 O 0.0 **** 0.0
40228 C 89.6398 65.2839 33.4161 C 0.0 **** 0.0
40229 C 88.8931 66.4431 32.6862 C 0.0 **** 0.0
40230 C 87.3408 66.1996 32.6326 C 0.0 **** 0.0
40231 C 89.4716 66.7701 31.2994 C 0.0 **** 0.0
40232 C 90.9859 66.9698 31.4079 C 0.0 **** 0.0
40233 C 91.6634 65.6294 31.7437 C 0.0 **** 0.0
40234 C 90.7087 64.5615 32.479 C 0.0 **** 0.0
40235 C 91.5472 63.5961 33.2766 C 0.0 **** 0.0
40236 C 92.8217 63.2459 32.5692 C 0.0 **** 0.0
40237 C 93.6866 64.5272 32.5302 C 0.0 **** 0.0
40238 N 92.9418 65.799 32.457 N 0.0 **** 0.0
40239 C 84.0494 68.2995 40.7305 C 0.0 **** 0.0
40240 C 84.0881 66.7767 40.9675 C 0.0 **** 0.0
40241 C 85.4256 66.2331 40.5764 C 0.0 **** 0.0
40242 O 83.8695 66.5312 42.357 O 0.0 **** 0.0
40243 C 82.5864 66.9936 42.7013 C 0.0 **** 0.0
40244 C 82.4087 68.4924 42.3952 C 0.0 **** 0.0
40245 O 82.7133 68.752 41.044 O 0.0 **** 0.0
40246 C 83.189 69.3972 43.3553 C 0.0 **** 0.0
40247 C 83.3581 68.7087 44.7558 C 0.0 **** 0.0
40248 C 82.2317 67.7419 45.1126 C 0.0 **** 0.0
40249 C 82.2465 66.5472 44.1341 C 0.0 **** 0.0
40250 C 86.8178 64.1323 40.4434 C 0.0 **** 0.0
40251 C 85.4836 64.7356 40.8812 C 0.0 **** 0.0
40252 C 88.3915 62.2098 38.9211 C 0.0 **** 0.0
40253 C 88.1002 61.9822 40.4238 C 0.0 **** 0.0
40254 C 86.8125 62.6356 40.8132 C 0.0 **** 0.0
40255 C 89.8045 61.7556 38.666 C 0.0 **** 0.0
40256 C 90.1183 61.8386 37.2019 C 0.0 **** 0.0
40257 C 89.7187 63.1156 36.5161 C 0.0 **** 0.0
40258 O 88.1283 60.6104 40.6885 O 0.0 **** 0.0
40259 C 89.4769 60.1692 40.5618 C 0.0 **** 0.0
40260 C 89.957 60.3018 39.1242 C 0.0 **** 0.0
40261 C 91.5562 61.3349 36.8651 C 0.0 **** 0.0
40262 C 91.9937 60.0454 37.608 C 0.0 **** 0.0
40263 C 91.4376 59.9248 39.0219 C 0.0 **** 0.0
40264 C 93.5354 59.8734 37.6684 C 0.0 **** 0.0
40265 C 94.1942 60.4081 36.3885 C 0.0 **** 0.0
40266 C 94.0236 61.9124 36.3607 C 0.0 **** 0.0
40267 C 92.6318 62.4263 36.9263 C 0.0 **** 0.0
40268 C 91.6756 58.4657 39.5259 C 0.0 **** 0.0
40269 C 91.1471 58.3156 40.9669 C 0.0 **** 0.0
40270 C 89.6761 58.7281 41.0036 C 0.0 **** 0.0
40271 C 93.8693 58.423 38.1079 C 0.0 **** 0.0
40272 C 93.209 58.2044 39.5109 C 0.0 **** 0.0
40273 C 83.2783 80.2084 36.5856 C 0.0 **** 0.0
40274 C 83.8295 79.0912 37.4579 C 0.0 **** 0.0
40275 C 84.1445 81.4443 36.7451 C 0.0 **** 0.0
40276 O 86.6655 67.2329 31.961 O 0.0 **** 0.0
40277 C 89.1012 58.4325 42.4536 C 0.0 **** 0.0
40278 C 89.2303 56.9416 42.7617 C 0.0 **** 0.0
40279 C 90.7615 56.6109 42.7941 C 0.0 **** 0.0
40280 C 91.412 56.8941 41.4382 C 0.0 **** 0.0
40281 C 92.9204 56.6608 41.5277 C 0.0 **** 0.0
40282 C 93.2468 55.2607 42.0664 C 0.0 **** 0.0
40283 C 92.5558 54.9929 43.3862 C 0.0 **** 0.0
40284 C 91.0232 55.1757 43.2522 C 0.0 **** 0.0
40285 C 92.8486 53.5678 43.8299 C 0.0 **** 0.0
40286 C 94.356 53.3244 43.9553 C 0.0 **** 0.0
40287 C 95.1328 53.7541 42.7092 C 0.0 **** 0.0
40288 C 94.7643 55.1893 42.2538 C 0.0 **** 0.0
40289 C 95.5723 55.5088 40.9387 C 0.0 **** 0.0
40290 C 95.0932 56.8247 40.2884 C 0.0 **** 0.0
40291 C 93.5704 56.8709 40.1593 C 0.0 **** 0.0
40292 C 97.0566 55.5749 41.2483 C 0.0 **** 0.0
40293 C 97.4371 54.1849 41.7894 C 0.0 **** 0.0
40294 C 96.6544 53.7886 43.034 C 0.0 **** 0.0
40295 C 95.3747 58.2652 38.2258 C 0.0 **** 0.0
40296 C 95.814 56.9464 38.9354 C 0.0 **** 0.0
40297 C 97.8976 55.7981 39.989 C 0.0 **** 0.0
40298 C 97.3754 56.916 39.0685 C 0.0 **** 0.0
40299 C 98.1515 57.0204 37.7293 C 0.0 **** 0.0
40300 C 99.5826 56.4358 37.7627 C 0.0 **** 0.0
40301 C 100.267 56.651 39.0865 C 0.0 **** 0.0
40302 C 99.3891 56.1844 40.2735 C 0.0 **** 0.0
40303 O 99.8402 56.204 41.4002 O 0.0 **** 0.0
40304 H 75.3953 80.5295 37.833 H 0.0 **** 0.0
40305 H 76.2091 78.9025 37.704 H 0.0 **** 0.0
40306 H 73.8159 80.1679 36.1903 H 0.0 **** 0.0
40307 H 75.1624 79.2152 35.5734 H 0.0 **** 0.0
40308 H 72.5296 78.484 36.9141 H 0.0 **** 0.0
40309 H 73.1302 76.2961 37.6213 H 0.0 **** 0.0
40310 H 75.334 77.2039 39.2015 H 0.0 **** 0.0
40311 H 73.5941 77.4035 39.5458 H 0.0 **** 0.0
40312 H 76.1456 76.6825 37.0721 H 0.0 **** 0.0
40313 H 75.7987 77.1141 34.8447 H 0.0 **** 0.0
40314 H 73.221 75.3526 34.8607 H 0.0 **** 0.0
40315 H 73.9148 76.3817 33.5085 H 0.0 **** 0.0
40316 H 71.9523 77.2603 35.0828 H 0.0 **** 0.0
40317 H 73.1174 78.2695 34.2977 H 0.0 **** 0.0
40318 H 77.1723 73.5462 34.8235 H 0.0 **** 0.0
40319 H 75.6727 72.9173 36.5124 H 0.0 **** 0.0
40320 H 75.2072 74.8773 38.5161 H 0.0 **** 0.0
40321 H 74.1901 74.3213 37.2223 H 0.0 **** 0.0
40322 H 77.9863 76.1601 36.2364 H 0.0 **** 0.0
40323 H 79.6818 72.7198 40.8251 H 0.0 **** 0.0
40324 H 78.4314 73.9198 40.5656 H 0.0 **** 0.0
40325 H 77.3529 71.8209 40.6916 H 0.0 **** 0.0
40326 H 78.5147 71.0705 39.5403 H 0.0 **** 0.0
40327 H 76.1584 71.6907 38.4772 H 0.0 **** 0.0
40328 H 80.0733 77.0785 35.3361 H 0.0 **** 0.0
40329 H 79.3765 75.2074 31.1472 H 0.0 **** 0.0
40330 H 78.5132 76.7114 31.1441 H 0.0 **** 0.0
40331 H 77.4798 75.1272 32.7894 H 0.0 **** 0.0
40332 H 81.2999 76.4699 30.1121 H 0.0 **** 0.0
40333 H 80.7171 78.137 30.3858 H 0.0 **** 0.0
40334 H 82.9571 78.535 30.4693 H 0.0 **** 0.0
40335 H 83.291 76.8949 31.2216 H 0.0 **** 0.0
40336 H 80.9483 79.2844 35.1397 H 0.0 **** 0.0
40337 H 82.0953 77.9378 35.6992 H 0.0 **** 0.0
40338 H 82.6141 80.7443 34.6398 H 0.0 **** 0.0
40339 H 84.6052 78.3177 34.684 H 0.0 **** 0.0
40340 H 85.1319 80.0823 34.4304 H 0.0 **** 0.0
40341 H 84.8683 78.8058 32.3274 H 0.0 **** 0.0
40342 H 83.7937 80.2208 32.4545 H 0.0 **** 0.0
40343 H 82.9276 75.2267 33.8811 H 0.0 **** 0.0
40344 H 86.317 71.4681 34.0092 H 0.0 **** 0.0
40345 H 86.9666 68.9673 33.5357 H 0.0 **** 0.0
40346 H 83.2355 71.0707 40.5915 H 0.0 **** 0.0
40347 H 90.2262 65.686 34.2051 H 0.0 **** 0.0
40348 H 89.0725 67.3549 33.3227 H 0.0 **** 0.0
40349 H 87.2058 65.2697 32.0847 H 0.0 **** 0.0
40350 H 89.2328 65.9384 30.5535 H 0.0 **** 0.0
40351 H 88.9926 67.6806 30.8738 H 0.0 **** 0.0
40352 H 91.1798 67.7352 32.172 H 0.0 **** 0.0
40353 H 91.4122 67.3315 30.4614 H 0.0 **** 0.0
40354 H 91.9099 65.24 30.7406 H 0.0 **** 0.0
40355 H 90.1501 63.9606 31.7457 H 0.0 **** 0.0
40356 H 91.7876 64.042 34.2534 H 0.0 **** 0.0
40357 H 90.9838 62.5747 33.4325 H 0.0 **** 0.0
40358 H 92.519 62.8543 31.6052 H 0.0 **** 0.0
40359 H 93.3828 62.3983 33.0597 H 0.0 **** 0.0
40360 H 94.3633 64.4447 31.6449 H 0.0 **** 0.0
40361 H 94.3452 64.4864 33.4319 H 0.0 **** 0.0
40362 H 92.785 66.0895 33.4536 H 0.0 **** 0.0
40363 H 81.8869 66.4828 42.0369 H 0.0 **** 0.0
40364 H 81.3219 68.7184 42.5596 H 0.0 **** 0.0
40365 H 84.2212 69.5583 42.9518 H 0.0 **** 0.0
40366 H 82.6532 70.3909 43.4255 H 0.0 **** 0.0
40367 H 83.4394 69.4955 45.5411 H 0.0 **** 0.0
40368 H 84.2916 68.1344 44.7535 H 0.0 **** 0.0
40369 H 81.2518 68.267 45.0277 H 0.0 **** 0.0
40370 H 82.3293 67.351 46.1283 H 0.0 **** 0.0
40371 H 81.2217 66.0868 44.1369 H 0.0 **** 0.0
40372 H 83.0137 65.7795 44.4862 H 0.0 **** 0.0
40373 H 85.4174 64.5912 41.9567 H 0.0 **** 0.0
40374 H 86.7343 62.5022 41.9261 H 0.0 **** 0.0
40375 H 89.8003 63.012 35.4823 H 0.0 **** 0.0
40376 H 91.5152 61.0312 35.8141 H 0.0 **** 0.0
40377 H 91.5491 59.2233 36.968 H 0.0 **** 0.0
40378 H 93.8654 60.5704 38.5195 H 0.0 **** 0.0
40379 H 93.7738 59.9759 35.4605 H 0.0 **** 0.0
40380 H 95.2717 60.1639 36.3374 H 0.0 **** 0.0
40381 H 94.2345 62.3149 35.3068 H 0.0 **** 0.0
40382 H 94.8231 62.3515 37.0649 H 0.0 **** 0.0
40383 H 92.2946 63.3671 36.4481 H 0.0 **** 0.0
40384 H 92.8167 62.7309 37.9584 H 0.0 **** 0.0
40385 H 82.2685 80.4788 36.987 H 0.0 **** 0.0
40386 H 84.1832 79.4941 38.4433 H 0.0 **** 0.0
40387 H 84.7204 78.6323 37.0 H 0.0 **** 0.0
40388 H 83.0534 78.3352 37.6757 H 0.0 **** 0.0
40389 H 83.7815 82.2578 36.1207 H 0.0 **** 0.0
40390 H 85.2013 81.184 36.4882 H 0.0 **** 0.0
40391 H 84.18 81.7705 37.7993 H 0.0 **** 0.0
40392 H 85.7183 66.9472 31.7052 H 0.0 **** 0.0
40393 H 88.0176 58.7442 42.5387 H 0.0 **** 0.0
40394 H 88.8294 56.7969 43.7577 H 0.0 **** 0.0
40395 H 90.524 55.0098 44.2195 H 0.0 **** 0.0
40396 H 92.3111 53.301 44.7327 H 0.0 **** 0.0
40397 H 94.5612 52.2613 44.2569 H 0.0 **** 0.0
40398 H 98.5668 54.1175 42.0316 H 0.0 **** 0.0
40399 H 96.9163 52.7789 43.334 H 0.0 **** 0.0
40400 H 95.7405 58.1941 37.1804 H 0.0 **** 0.0
40401 H 97.5741 56.5224 36.842 H 0.0 **** 0.0
40402 H 98.1893 58.1007 37.4404 H 0.0 **** 0.0
40403 H 100.249 56.8748 36.9627 H 0.0 **** 0.0
40404 H 99.5193 55.3335 37.6356 H 0.0 **** 0.0
40405 H 100.581 57.7145 39.1308 H 0.0 **** 0.0
40406 H 101.223 56.1258 39.0471 H 0.0 **** 0.0
40407 C 31.3205 49.7319 81.9091 C 0.0 **** 0.0
40408 C 32.8284 50.064 81.6725 C 0.0 **** 0.0
40409 C 33.5979 48.7548 81.548 C 0.0 **** 0.0
40410 C 33.3117 47.8203 82.8078 C 0.0 **** 0.0
40411 C 32.1329 48.3348 83.649 C 0.0 **** 0.0
40412 O 31.092 48.6384 82.78 O 0.0 **** 0.0
40413 C 34.5139 47.681 83.7238 C 0.0 **** 0.0
40414 C 35.2953 48.9772 83.8064 C 0.0 **** 0.0
40415 C 35.97 49.4087 82.5227 C 0.0 **** 0.0
40416 C 35.1153 49.0374 81.2556 C 0.0 **** 0.0
40417 O 36.1559 48.9935 84.8848 O 0.0 **** 0.0
40418 C 36.8723 47.7637 85.1542 C 0.0 **** 0.0
40419 C 36.7282 46.6469 84.0947 C 0.0 **** 0.0
40420 C 35.4309 46.5424 83.337 C 0.0 **** 0.0
40421 C 37.0908 45.2663 84.5823 C 0.0 **** 0.0
40422 C 36.9951 44.8688 85.9518 C 0.0 **** 0.0
40423 C 37.4164 45.9929 86.915 C 0.0 **** 0.0
40424 C 36.5316 47.2561 86.6077 C 0.0 **** 0.0
40425 C 37.227 45.5212 88.3676 C 0.0 **** 0.0
40426 C 38.1743 44.3106 88.5273 C 0.0 **** 0.0
40427 C 37.7245 43.1406 87.6059 C 0.0 **** 0.0
40428 C 37.7975 43.5717 86.1739 C 0.0 **** 0.0
40429 C 37.1933 42.4591 85.3001 C 0.0 **** 0.0
40430 C 37.4049 42.7688 83.8527 C 0.0 **** 0.0
40431 C 37.2117 44.2285 83.5723 C 0.0 **** 0.0
40432 O 38.4247 41.8934 87.7589 O 0.0 **** 0.0
40433 C 39.4523 42.0535 88.7107 C 0.0 **** 0.0
40434 C 38.926 42.4292 90.077 C 0.0 **** 0.0
40435 C 38.138 43.777 89.9566 C 0.0 **** 0.0
40436 C 36.6993 48.2578 87.7668 C 0.0 **** 0.0
40437 C 36.4278 47.7182 89.1386 C 0.0 **** 0.0
40438 C 37.5286 46.6842 89.3641 C 0.0 **** 0.0
40439 C 36.2952 48.7466 90.2726 C 0.0 **** 0.0
40440 C 36.8579 49.9499 90.1305 C 0.0 **** 0.0
40441 C 37.2559 50.4749 88.7746 C 0.0 **** 0.0
40442 C 37.214 49.4828 87.649 C 0.0 **** 0.0
40443 C 36.9611 50.8404 91.324 C 0.0 **** 0.0
40444 C 37.3104 50.0045 92.5404 C 0.0 **** 0.0
40445 C 36.3132 48.8824 92.7119 C 0.0 **** 0.0
40446 C 35.7629 48.3277 91.6203 C 0.0 **** 0.0
40447 C 34.6337 47.292 91.6782 C 0.0 **** 0.0
40448 C 34.203 46.9271 93.0921 C 0.0 **** 0.0
40449 C 35.463 46.9633 94.0477 C 0.0 **** 0.0
40450 C 36.0347 48.3674 94.1104 C 0.0 **** 0.0
40451 C 38.5308 44.8516 90.9565 C 0.0 **** 0.0
40452 C 37.6561 46.1267 90.7924 C 0.0 **** 0.0
40453 C 40.0544 42.4106 91.1019 C 0.0 **** 0.0
40454 C 39.597 42.7562 92.5018 C 0.0 **** 0.0
40455 S 38.2878 44.128 92.6148 S 0.0 **** 0.0
40456 C 40.8491 43.0984 93.3367 C 0.0 **** 0.0
40457 C 41.9826 42.022 93.1933 C 0.0 **** 0.0
40458 C 42.203 41.5162 91.7394 C 0.0 **** 0.0
40459 C 40.7964 41.0777 91.2555 C 0.0 **** 0.0
40460 C 43.1179 40.3104 91.8827 C 0.0 **** 0.0
40461 C 44.464 40.742 92.4856 C 0.0 **** 0.0
40462 C 44.3011 41.3712 93.8681 C 0.0 **** 0.0
40463 C 43.2674 42.533 93.8088 C 0.0 **** 0.0
40464 C 45.6786 41.9422 94.2745 C 0.0 **** 0.0
40465 C 46.9468 41.0623 94.0797 C 0.0 **** 0.0
40466 C 46.9183 40.2253 92.7987 C 0.0 **** 0.0
40467 C 45.5148 39.6407 92.5132 C 0.0 **** 0.0
40468 C 40.7696 40.1798 89.9908 C 0.0 **** 0.0
40469 C 40.5136 40.9631 88.6946 C 0.0 **** 0.0
40470 C 43.2524 39.5721 90.5671 C 0.0 **** 0.0
40471 C 41.8807 39.1268 89.9832 C 0.0 **** 0.0
40472 C 45.4819 38.8961 91.1605 C 0.0 **** 0.0
40473 C 44.1142 38.3114 90.8299 C 0.0 **** 0.0
40474 C 47.9238 39.0333 92.7415 C 0.0 **** 0.0
40475 C 47.9553 38.5663 91.2988 C 0.0 **** 0.0
40476 C 46.6086 37.8488 91.1104 C 0.0 **** 0.0
40477 O 48.0636 41.9351 94.0099 O 0.0 **** 0.0
40478 C 48.2406 42.6797 95.2436 C 0.0 **** 0.0
40479 C 47.1215 42.4323 96.3461 C 0.0 **** 0.0
40480 C 45.72 42.5891 95.6961 C 0.0 **** 0.0
40481 C 47.2352 43.2978 97.617 C 0.0 **** 0.0
40482 C 48.4059 44.2696 97.5364 C 0.0 **** 0.0
40483 C 48.2469 45.068 96.2283 C 0.0 **** 0.0
40484 C 48.2883 44.2101 94.9291 C 0.0 **** 0.0
40485 C 49.4804 44.5032 94.0696 C 0.0 **** 0.0
40486 C 49.587 45.9683 93.7505 C 0.0 **** 0.0
40487 C 49.2473 46.8769 94.9287 C 0.0 **** 0.0
40488 N 49.2554 46.15 96.1982 N 0.0 **** 0.0
40489 C 41.9027 38.1656 88.8187 C 0.0 **** 0.0
40490 C 42.8414 36.9791 88.982 C 0.0 **** 0.0
40491 C 44.202 37.4474 89.5259 C 0.0 **** 0.0
40492 O 43.0992 36.3604 87.7108 O 0.0 **** 0.0
40493 C 42.1099 36.5258 86.7044 C 0.0 **** 0.0
40494 C 41.7536 38.0136 86.4953 C 0.0 **** 0.0
40495 O 42.1887 38.7861 87.5946 O 0.0 **** 0.0
40496 C 40.3028 38.3197 86.1116 C 0.0 **** 0.0
40497 C 39.6612 37.1152 85.3658 C 0.0 **** 0.0
40498 C 39.6231 35.852 86.2654 C 0.0 **** 0.0
40499 C 40.9611 35.6207 87.0479 C 0.0 **** 0.0
40500 C 46.5707 37.0487 89.8039 C 0.0 **** 0.0
40501 C 45.238 36.349 89.5739 C 0.0 **** 0.0
40502 C 49.1807 37.6976 90.9653 C 0.0 **** 0.0
40503 C 49.0763 36.7696 89.7207 C 0.0 **** 0.0
40504 C 47.7178 36.0735 89.6507 C 0.0 **** 0.0
40505 C 49.7396 36.9951 92.1466 C 0.0 **** 0.0
40506 C 50.2031 38.0046 93.1692 C 0.0 **** 0.0
40507 C 49.3058 39.239 93.3521 C 0.0 **** 0.0
40508 O 50.162 35.8758 89.5323 O 0.0 **** 0.0
40509 C 50.5166 35.1675 90.6704 C 0.0 **** 0.0
40510 C 50.979 36.1474 91.7381 C 0.0 **** 0.0
40511 C 50.69 37.3591 94.51 C 0.0 **** 0.0
40512 C 51.6606 36.12 94.2152 C 0.0 **** 0.0
40513 C 51.3745 35.329 92.9554 C 0.0 **** 0.0
40514 C 51.5971 35.0931 95.371 C 0.0 **** 0.0
40515 C 51.4495 35.7846 96.7125 C 0.0 **** 0.0
40516 C 50.0992 36.4807 96.839 C 0.0 **** 0.0
40517 C 49.5776 36.9695 95.5041 C 0.0 **** 0.0
40518 C 52.433 34.3145 92.689 C 0.0 **** 0.0
40519 C 52.037 33.3858 91.588 C 0.0 **** 0.0
40520 C 51.6505 34.1328 90.3203 C 0.0 **** 0.0
40521 C 52.7957 34.0903 95.31 C 0.0 **** 0.0
40522 C 52.8598 33.4324 93.964 C 0.0 **** 0.0
40523 C 33.4705 45.5655 93.1702 C 0.0 **** 0.0
40524 C 34.3205 44.3043 93.2071 C 0.0 **** 0.0
40525 C 32.4699 45.5896 94.3968 C 0.0 **** 0.0
40526 O 44.7284 41.9911 96.4692 O 0.0 **** 0.0
40527 C 51.1372 33.1691 89.2805 C 0.0 **** 0.0
40528 C 51.9017 31.7759 89.2039 C 0.0 **** 0.0
40529 C 53.3142 31.8306 89.9124 C 0.0 **** 0.0
40530 C 52.9932 32.1553 91.3984 C 0.0 **** 0.0
40531 C 54.2838 32.249 92.1613 C 0.0 **** 0.0
40532 C 55.1957 31.0615 92.0049 C 0.0 **** 0.0
40533 C 55.4183 30.6341 90.5649 C 0.0 **** 0.0
40534 C 54.1646 30.5702 89.7231 C 0.0 **** 0.0
40535 C 56.2129 29.2837 90.7268 C 0.0 **** 0.0
40536 C 57.6333 29.6237 91.2434 C 0.0 **** 0.0
40537 C 57.6111 30.3721 92.6026 C 0.0 **** 0.0
40538 C 56.5865 31.5135 92.574 C 0.0 **** 0.0
40539 C 56.545 32.1262 94.0034 C 0.0 **** 0.0
40540 C 55.4114 33.133 94.1247 C 0.0 **** 0.0
40541 C 54.0847 32.5167 93.6774 C 0.0 **** 0.0
40542 C 57.9093 32.7431 94.4297 C 0.0 **** 0.0
40543 C 59.0417 31.6947 94.2838 C 0.0 **** 0.0
40544 C 59.0031 30.9058 92.9878 C 0.0 **** 0.0
40545 C 54.1484 34.7016 95.74 C 0.0 **** 0.0
40546 C 55.3764 33.9036 95.4026 C 0.0 **** 0.0
40547 C 57.8835 33.5435 95.7611 C 0.0 **** 0.0
40548 C 56.4977 33.7758 96.4393 C 0.0 **** 0.0
40549 C 56.1337 32.6257 97.4088 C 0.0 **** 0.0
40550 C 57.2608 32.2199 98.3967 C 0.0 **** 0.0
40551 C 58.5666 31.8704 97.6346 C 0.0 **** 0.0
40552 C 58.8606 33.0787 96.8014 C 0.0 **** 0.0
40553 O 59.9205 33.6321 96.9325 O 0.0 **** 0.0
40554 H 30.7768 49.549 80.9675 H 0.0 **** 0.0
40555 H 30.8372 50.6511 82.3456 H 0.0 **** 0.0
40556 H 32.9022 50.7514 80.8045 H 0.0 **** 0.0
40557 H 33.1946 50.6174 82.5045 H 0.0 **** 0.0
40558 H 33.2613 48.2674 80.6064 H 0.0 **** 0.0
40559 H 33.0082 46.8343 82.5012 H 0.0 **** 0.0
40560 H 32.3412 49.2066 84.3241 H 0.0 **** 0.0
40561 H 31.8451 47.5005 84.3133 H 0.0 **** 0.0
40562 H 34.1715 47.3429 84.7336 H 0.0 **** 0.0
40563 H 34.5157 49.7236 84.0107 H 0.0 **** 0.0
40564 H 36.9769 48.997 82.4927 H 0.0 **** 0.0
40565 H 36.0771 50.4942 82.5736 H 0.0 **** 0.0
40566 H 35.5847 48.2042 80.7219 H 0.0 **** 0.0
40567 H 35.182 49.892 80.575 H 0.0 **** 0.0
40568 H 37.9176 47.9984 85.1628 H 0.0 **** 0.0
40569 H 37.5347 46.7743 83.346 H 0.0 **** 0.0
40570 H 34.8861 45.5915 83.4927 H 0.0 **** 0.0
40571 H 35.6276 46.5388 82.2387 H 0.0 **** 0.0
40572 H 35.4904 46.9225 86.5574 H 0.0 **** 0.0
40573 H 37.5605 41.4722 85.5041 H 0.0 **** 0.0
40574 H 36.0927 42.3841 85.5496 H 0.0 **** 0.0
40575 H 36.6996 42.1358 83.2746 H 0.0 **** 0.0
40576 H 38.4654 42.5334 83.5991 H 0.0 **** 0.0
40577 H 37.1631 44.5516 82.4906 H 0.0 **** 0.0
40578 H 35.4511 47.1876 89.0158 H 0.0 **** 0.0
40579 H 38.27 50.837 88.8149 H 0.0 **** 0.0
40580 H 36.5412 51.2563 88.4537 H 0.0 **** 0.0
40581 H 37.6043 49.8041 86.7059 H 0.0 **** 0.0
40582 H 37.8256 51.5613 91.204 H 0.0 **** 0.0
40583 H 36.0386 51.419 91.4821 H 0.0 **** 0.0
40584 H 37.3319 50.669 93.474 H 0.0 **** 0.0
40585 H 38.3203 49.5814 92.4655 H 0.0 **** 0.0
40586 H 33.758 47.6699 91.1198 H 0.0 **** 0.0
40587 H 34.9834 46.3176 91.1953 H 0.0 **** 0.0
40588 H 33.5779 47.7244 93.4632 H 0.0 **** 0.0
40589 H 36.3064 46.2827 93.7157 H 0.0 **** 0.0
40590 H 35.1706 46.6907 95.1356 H 0.0 **** 0.0
40591 H 36.9472 48.2906 94.6646 H 0.0 **** 0.0
40592 H 35.3351 49.0669 94.5807 H 0.0 **** 0.0
40593 H 38.0407 46.9322 91.4594 H 0.0 **** 0.0
40594 H 40.5265 43.1 94.3912 H 0.0 **** 0.0
40595 H 43.0654 42.8471 94.8758 H 0.0 **** 0.0
40596 H 40.3676 40.415 87.7623 H 0.0 **** 0.0
40597 H 49.1948 42.3528 95.644 H 0.0 **** 0.0
40598 H 47.311 41.3693 96.6408 H 0.0 **** 0.0
40599 H 45.4674 43.6671 95.5307 H 0.0 **** 0.0
40600 H 46.2891 43.7691 97.9052 H 0.0 **** 0.0
40601 H 47.4897 42.6154 98.4717 H 0.0 **** 0.0
40602 H 49.3633 43.674 97.5055 H 0.0 **** 0.0
40603 H 48.3855 44.9567 98.4235 H 0.0 **** 0.0
40604 H 47.2922 45.5953 96.3248 H 0.0 **** 0.0
40605 H 47.3985 44.4869 94.3594 H 0.0 **** 0.0
40606 H 50.3577 44.178 94.6055 H 0.0 **** 0.0
40607 H 49.3998 43.8844 93.1299 H 0.0 **** 0.0
40608 H 48.9558 46.2723 92.8597 H 0.0 **** 0.0
40609 H 50.6564 46.2004 93.4722 H 0.0 **** 0.0
40610 H 48.2669 47.3304 94.7174 H 0.0 **** 0.0
40611 H 49.8794 47.7815 95.0226 H 0.0 **** 0.0
40612 H 50.2095 45.7738 96.2965 H 0.0 **** 0.0
40613 H 42.5966 36.122 85.7685 H 0.0 **** 0.0
40614 H 42.3707 38.3417 85.6326 H 0.0 **** 0.0
40615 H 39.7529 38.5124 87.0517 H 0.0 **** 0.0
40616 H 40.2969 39.2469 85.4248 H 0.0 **** 0.0
40617 H 40.1451 37.0155 84.3373 H 0.0 **** 0.0
40618 H 38.5908 37.4262 85.1194 H 0.0 **** 0.0
40619 H 39.4448 34.926 85.6222 H 0.0 **** 0.0
40620 H 38.7736 35.86 87.0046 H 0.0 **** 0.0
40621 H 41.307 34.5266 86.9915 H 0.0 **** 0.0
40622 H 40.7355 35.731 88.0686 H 0.0 **** 0.0
40623 H 45.2521 35.7435 88.6107 H 0.0 **** 0.0
40624 H 47.58 35.3979 88.7347 H 0.0 **** 0.0
40625 H 49.2656 39.5703 94.385 H 0.0 **** 0.0
40626 H 51.349 38.0234 95.0013 H 0.0 **** 0.0
40627 H 52.6811 36.522 94.1719 H 0.0 **** 0.0
40628 H 50.6569 34.5249 95.275 H 0.0 **** 0.0
40629 H 52.296 36.5303 96.7831 H 0.0 **** 0.0
40630 H 51.4576 35.0831 97.5843 H 0.0 **** 0.0
40631 H 50.2593 37.415 97.4827 H 0.0 **** 0.0
40632 H 49.3603 35.8637 97.3294 H 0.0 **** 0.0
40633 H 48.8229 37.7438 95.696 H 0.0 **** 0.0
40634 H 49.0816 36.1137 95.0173 H 0.0 **** 0.0
40635 H 32.7948 45.5856 92.2831 H 0.0 **** 0.0
40636 H 33.6563 43.4213 93.1477 H 0.0 **** 0.0
40637 H 34.9729 44.172 94.1024 H 0.0 **** 0.0
40638 H 35.0223 44.3748 92.3339 H 0.0 **** 0.0
40639 H 31.7252 46.3672 94.3286 H 0.0 **** 0.0
40640 H 33.0281 45.6965 95.3374 H 0.0 **** 0.0
40641 H 31.8725 44.629 94.4563 H 0.0 **** 0.0
40642 H 44.4981 42.6053 97.2155 H 0.0 **** 0.0
40643 H 51.1234 33.629 88.2321 H 0.0 **** 0.0
40644 H 52.0899 31.5423 88.1448 H 0.0 **** 0.0
40645 H 54.3972 30.3703 88.6437 H 0.0 **** 0.0
40646 H 56.2934 28.6952 89.7708 H 0.0 **** 0.0
40647 H 58.2269 30.1956 90.4885 H 0.0 **** 0.0
40648 H 60.0628 32.0827 94.4946 H 0.0 **** 0.0
40649 H 59.319 31.546 92.169 H 0.0 **** 0.0
40650 H 54.136 34.806 96.8566 H 0.0 **** 0.0
40651 H 55.1999 32.9133 97.9535 H 0.0 **** 0.0
40652 H 55.9462 31.6974 96.8151 H 0.0 **** 0.0
40653 H 56.9625 31.4497 99.0458 H 0.0 **** 0.0
40654 H 57.4139 33.0445 99.0911 H 0.0 **** 0.0
40655 H 58.4148 30.9875 97.0502 H 0.0 **** 0.0
40656 H 59.4206 31.6728 98.2528 H 0.0 **** 0.0
40657 C 105.723 62.159 20.0434 C 0.0 **** 0.0
40658 C 105.492 60.7074 20.4112 C 0.0 **** 0.0
40659 C 105.461 59.8762 19.1127 C 0.0 **** 0.0
40660 C 104.466 60.4912 18.0852 C 0.0 **** 0.0
40661 C 104.748 61.9937 17.9309 C 0.0 **** 0.0
40662 O 105.881 62.4254 18.6946 O 0.0 **** 0.0
40663 C 103.024 60.2002 18.4558 C 0.0 **** 0.0
40664 C 102.81 58.7403 18.97 C 0.0 **** 0.0
40665 C 104.039 57.8005 18.7747 C 0.0 **** 0.0
40666 C 105.235 58.3631 19.4654 C 0.0 **** 0.0
40667 O 101.61 58.1003 18.5801 O 0.0 **** 0.0
40668 C 101.411 58.0327 17.1662 C 0.0 **** 0.0
40669 C 101.933 59.291 16.4094 C 0.0 **** 0.0
40670 C 101.99 60.4637 17.3368 C 0.0 **** 0.0
40671 C 101.2 59.665 15.1553 C 0.0 **** 0.0
40672 C 99.8289 59.2964 14.898 C 0.0 **** 0.0
40673 C 99.4713 57.9092 15.4646 C 0.0 **** 0.0
40674 C 99.8914 57.8612 16.9306 C 0.0 **** 0.0
40675 C 97.9194 57.7225 15.3303 C 0.0 **** 0.0
40676 C 97.5735 57.58 13.8358 C 0.0 **** 0.0
40677 C 98.0736 58.8216 13.0541 C 0.0 **** 0.0
40678 C 99.4883 59.2996 13.4289 C 0.0 **** 0.0
40679 C 99.8023 60.6569 12.8148 C 0.0 **** 0.0
40680 C 101.313 60.9099 12.8963 C 0.0 **** 0.0
40681 C 101.912 60.4582 14.2005 C 0.0 **** 0.0
40682 O 97.9541 58.7147 11.6584 O 0.0 **** 0.0
40683 C 97.1047 57.6535 11.239 C 0.0 **** 0.0
40684 C 95.812 57.5366 12.0553 C 0.0 **** 0.0
40685 C 96.1019 57.4869 13.5889 C 0.0 **** 0.0
40686 C 99.2709 56.6295 17.5751 C 0.0 **** 0.0
40687 C 97.7592 56.5811 17.5662 C 0.0 **** 0.0
40688 C 97.4036 56.4555 16.0768 C 0.0 **** 0.0
40689 C 97.2467 55.507 18.5446 C 0.0 **** 0.0
40690 C 97.8668 54.2933 18.5564 C 0.0 **** 0.0
40691 C 99.205 54.1465 17.8773 C 0.0 **** 0.0
40692 C 99.9407 55.4368 17.6516 C 0.0 **** 0.0
40693 C 97.3183 53.1224 19.4353 C 0.0 **** 0.0
40694 C 95.8094 53.3068 19.6816 C 0.0 **** 0.0
40695 C 95.4974 54.6689 20.2137 C 0.0 **** 0.0
40696 C 96.1502 55.7242 19.6021 C 0.0 **** 0.0
40697 C 95.7922 57.1486 20.0885 C 0.0 **** 0.0
40698 C 95.3004 57.2152 21.5861 C 0.0 **** 0.0
40699 C 94.175 56.1864 21.7082 C 0.0 **** 0.0
40700 C 94.6827 54.7682 21.4852 C 0.0 **** 0.0
40701 C 95.5551 56.2155 14.2662 C 0.0 **** 0.0
40702 C 95.9016 56.1811 15.7854 C 0.0 **** 0.0
40703 C 94.948 56.4046 11.4989 C 0.0 **** 0.0
40704 C 93.6249 56.4438 12.2729 C 0.0 **** 0.0
40705 S 93.7507 56.237 14.0986 S 0.0 **** 0.0
40706 C 92.6092 55.4404 11.7101 C 0.0 **** 0.0
40707 C 92.3857 55.7066 10.2046 C 0.0 **** 0.0
40708 C 93.6653 55.5228 9.46022 C 0.0 **** 0.0
40709 C 94.6484 56.5705 10.0004 C 0.0 **** 0.0
40710 C 93.4662 55.6996 7.98928 C 0.0 **** 0.0
40711 C 92.2746 54.8739 7.42618 C 0.0 **** 0.0
40712 C 91.0335 55.444 8.14926 C 0.0 **** 0.0
40713 C 91.1998 54.9649 9.59676 C 0.0 **** 0.0
40714 C 89.7099 55.0129 7.47102 C 0.0 **** 0.0
40715 C 89.7019 55.1016 5.95246 C 0.0 **** 0.0
40716 C 90.9076 54.3107 5.40554 C 0.0 **** 0.0
40717 C 92.1541 55.0135 5.89418 C 0.0 **** 0.0
40718 C 95.9928 56.5189 9.27554 C 0.0 **** 0.0
40719 C 96.8489 57.7394 9.72716 C 0.0 **** 0.0
40720 C 94.7658 55.355 7.33068 C 0.0 **** 0.0
40721 C 95.8076 56.4346 7.7461 C 0.0 **** 0.0
40722 C 93.4747 54.4754 5.34484 C 0.0 **** 0.0
40723 C 94.5894 55.433 5.81326 C 0.0 **** 0.0
40724 C 90.8958 54.0326 3.83302 C 0.0 **** 0.0
40725 C 92.1833 54.531 3.09622 C 0.0 **** 0.0
40726 C 93.4925 54.2115 3.84472 C 0.0 **** 0.0
40727 O 88.4113 54.5603 5.56123 O 0.0 **** 0.0
40728 C 87.4776 55.5729 5.65535 C 0.0 **** 0.0
40729 C 87.5352 56.3873 6.94921 C 0.0 **** 0.0
40730 C 88.3786 55.6663 8.03454 C 0.0 **** 0.0
40731 C 86.1643 56.8611 7.44991 C 0.0 **** 0.0
40732 C 85.2226 57.2047 6.27911 C 0.0 **** 0.0
40733 C 84.917 55.971 5.431 C 0.0 **** 0.0
40734 C 86.0659 54.9316 5.39506 C 0.0 **** 0.0
40735 C 86.0918 54.1879 4.00434 C 0.0 **** 0.0
40736 C 84.6842 53.9268 3.43697 C 0.0 **** 0.0
40737 C 83.753 55.149 3.48297 C 0.0 **** 0.0
40738 N 84.4438 56.3305 4.04023 N 0.0 **** 0.0
40739 C 97.1682 56.414 6.95903 C 0.0 **** 0.0
40740 C 97.1906 55.3421 5.90624 C 0.0 **** 0.0
40741 C 95.8797 55.0579 5.10763 C 0.0 **** 0.0
40742 O 98.283 55.5721 5.05198 O 0.0 **** 0.0
40743 C 99.4947 55.4209 5.76184 C 0.0 **** 0.0
40744 C 99.5114 56.2954 7.04526 C 0.0 **** 0.0
40745 O 98.3059 56.2247 7.7895 O 0.0 **** 0.0
40746 C 99.9161 57.7334 6.76138 C 0.0 **** 0.0
40747 C 101.272 57.7536 6.06169 C 0.0 **** 0.0
40748 C 101.755 56.4206 5.42347 C 0.0 **** 0.0
40749 C 100.636 55.6905 4.76849 C 0.0 **** 0.0
40750 C 94.8157 54.5222 2.97118 C 0.0 **** 0.0
40751 C 95.7656 55.5168 3.69541 C 0.0 **** 0.0
40752 C 92.2137 53.8968 1.71439 C 0.0 **** 0.0
40753 C 93.4883 54.2081 0.862599 C 0.0 **** 0.0
40754 C 94.5234 55.0795 1.60691 C 0.0 **** 0.0
40755 C 90.983 54.3003 0.923086 C 0.0 **** 0.0
40756 C 89.6644 54.0008 1.59122 C 0.0 **** 0.0
40757 C 89.6903 54.5043 3.04314 C 0.0 **** 0.0
40758 O 93.1799 54.7158 -0.392843 O 0.0 **** 0.0
40759 C 92.4624 53.707 -1.06933 C 0.0 **** 0.0
40760 C 91.0559 53.5448 -0.440432 C 0.0 **** 0.0
40761 C 88.388 54.3985 0.743326 C 0.0 **** 0.0
40762 C 88.5341 54.0175 -0.789399 C 0.0 **** 0.0
40763 C 89.952 54.139 -1.3253 C 0.0 **** 0.0
40764 C 87.6574 54.8784 -1.76884 C 0.0 **** 0.0
40765 C 86.3052 55.2672 -1.05718 C 0.0 **** 0.0
40766 C 86.5334 56.0279 0.320512 C 0.0 **** 0.0
40767 C 87.9293 55.8748 0.9296 C 0.0 **** 0.0
40768 C 90.0031 53.4385 -2.67535 C 0.0 **** 0.0
40769 C 91.3261 53.6192 -3.46312 C 0.0 **** 0.0
40770 C 92.5744 53.7043 -2.60578 C 0.0 **** 0.0
40771 C 87.4543 54.0362 -3.03834 C 0.0 **** 0.0
40772 C 88.8751 53.8504 -3.66724 C 0.0 **** 0.0
40773 C 94.8891 58.6233 22.0617 C 0.0 **** 0.0
40774 C 93.5406 59.1332 21.5102 C 0.0 **** 0.0
40775 C 94.8276 58.6778 23.5706 C 0.0 **** 0.0
40776 O 88.6727 56.595 9.04703 O 0.0 **** 0.0
40777 C 93.6685 52.7197 -3.03029 C 0.0 **** 0.0
40778 C 93.9416 52.7088 -4.54582 C 0.0 **** 0.0
40779 C 92.6435 52.7283 -5.37939 C 0.0 **** 0.0
40780 C 91.3614 52.5053 -4.52636 C 0.0 **** 0.0
40781 C 90.163 52.5662 -5.4406 C 0.0 **** 0.0
40782 C 90.0965 51.3549 -6.33215 C 0.0 **** 0.0
40783 C 91.492 50.8759 -6.77917 C 0.0 **** 0.0
40784 C 92.6412 51.8794 -6.67984 C 0.0 **** 0.0
40785 C 91.4688 50.1729 -8.15736 C 0.0 **** 0.0
40786 C 90.2053 49.3529 -8.3391 C 0.0 **** 0.0
40787 C 88.8944 50.2499 -8.22862 C 0.0 **** 0.0
40788 C 89.1627 51.5833 -7.56625 C 0.0 **** 0.0
40789 C 87.83 52.3558 -7.25221 C 0.0 **** 0.0
40790 C 87.8843 53.275 -5.97966 C 0.0 **** 0.0
40791 C 88.7918 52.768 -4.77146 C 0.0 **** 0.0
40792 C 86.5577 51.4766 -7.28987 C 0.0 **** 0.0
40793 C 86.8548 50.1593 -6.56797 C 0.0 **** 0.0
40794 C 87.8609 49.3973 -7.42864 C 0.0 **** 0.0
40795 C 86.6994 54.7941 -4.18571 C 0.0 **** 0.0
40796 C 86.5215 53.9166 -5.4881 C 0.0 **** 0.0
40797 C 85.2742 52.2456 -6.88127 C 0.0 **** 0.0
40798 C 85.4323 52.8485 -5.43777 C 0.0 **** 0.0
40799 C 84.0878 53.3812 -4.86068 C 0.0 **** 0.0
40800 C 82.9664 52.3263 -5.01253 C 0.0 **** 0.0
40801 C 82.7031 52.1095 -6.49161 C 0.0 **** 0.0
40802 C 83.9553 51.4849 -7.07206 C 0.0 **** 0.0
40803 O 83.9314 50.3967 -7.61417 O 0.0 **** 0.0
40804 H 106.573 62.5691 20.5685 H 0.0 **** 0.0
40805 H 104.966 62.7914 20.4534 H 0.0 **** 0.0
40806 H 106.403 60.3591 20.9662 H 0.0 **** 0.0
40807 H 104.568 60.5879 20.9815 H 0.0 **** 0.0
40808 H 106.506 59.9593 18.6369 H 0.0 **** 0.0
40809 H 104.717 59.9972 17.1448 H 0.0 **** 0.0
40810 H 103.869 62.6376 18.2166 H 0.0 **** 0.0
40811 H 104.923 62.2142 16.8647 H 0.0 **** 0.0
40812 H 102.742 60.9109 19.2921 H 0.0 **** 0.0
40813 H 102.724 58.8827 20.0366 H 0.0 **** 0.0
40814 H 104.173 57.6572 17.6462 H 0.0 **** 0.0
40815 H 103.816 56.8143 19.2521 H 0.0 **** 0.0
40816 H 106.07 57.7366 19.1557 H 0.0 **** 0.0
40817 H 105.155 58.1911 20.5439 H 0.0 **** 0.0
40818 H 101.946 57.1471 16.7796 H 0.0 **** 0.0
40819 H 102.934 59.0295 16.0848 H 0.0 **** 0.0
40820 H 101.012 60.6044 17.8098 H 0.0 **** 0.0
40821 H 102.187 61.4192 16.804 H 0.0 **** 0.0
40822 H 99.4371 58.7174 17.4108 H 0.0 **** 0.0
40823 H 99.4454 60.7455 11.7719 H 0.0 **** 0.0
40824 H 99.1788 61.4522 13.2788 H 0.0 **** 0.0
40825 H 101.478 61.9976 12.8329 H 0.0 **** 0.0
40826 H 101.861 60.4699 12.0216 H 0.0 **** 0.0
40827 H 102.978 60.647 14.3326 H 0.0 **** 0.0
40828 H 97.4295 57.5741 17.9427 H 0.0 **** 0.0
40829 H 99.0553 53.5549 16.936 H 0.0 **** 0.0
40830 H 99.8303 53.5254 18.5192 H 0.0 **** 0.0
40831 H 100.966 55.3701 17.5043 H 0.0 **** 0.0
40832 H 97.5116 52.2016 18.8925 H 0.0 **** 0.0
40833 H 97.8157 53.0929 20.3821 H 0.0 **** 0.0
40834 H 95.4735 52.4818 20.3256 H 0.0 **** 0.0
40835 H 95.2609 53.2151 18.7366 H 0.0 **** 0.0
40836 H 96.6679 57.8181 20.0151 H 0.0 **** 0.0
40837 H 94.9693 57.5749 19.4263 H 0.0 **** 0.0
40838 H 96.1728 56.8774 22.2198 H 0.0 **** 0.0
40839 H 93.3357 56.3505 21.0557 H 0.0 **** 0.0
40840 H 93.7221 56.2567 22.7339 H 0.0 **** 0.0
40841 H 93.8594 54.0229 21.5429 H 0.0 **** 0.0
40842 H 95.3296 54.5536 22.3435 H 0.0 **** 0.0
40843 H 95.5682 55.263 16.3147 H 0.0 **** 0.0
40844 H 91.7033 55.5647 12.3154 H 0.0 **** 0.0
40845 H 90.3054 55.1419 10.1628 H 0.0 **** 0.0
40846 H 96.4013 58.7342 9.47306 H 0.0 **** 0.0
40847 H 87.6655 56.2723 4.82691 H 0.0 **** 0.0
40848 H 88.0817 57.32 6.6608 H 0.0 **** 0.0
40849 H 87.8301 54.8236 8.47868 H 0.0 **** 0.0
40850 H 85.7155 56.0265 8.03283 H 0.0 **** 0.0
40851 H 86.2735 57.8216 8.07085 H 0.0 **** 0.0
40852 H 85.5879 58.0798 5.69883 H 0.0 **** 0.0
40853 H 84.255 57.4876 6.72337 H 0.0 **** 0.0
40854 H 84.0812 55.4949 5.9364 H 0.0 **** 0.0
40855 H 85.8677 54.1889 6.17448 H 0.0 **** 0.0
40856 H 86.7804 54.6965 3.31319 H 0.0 **** 0.0
40857 H 86.5589 53.2026 4.10152 H 0.0 **** 0.0
40858 H 84.2173 53.0832 3.9584 H 0.0 **** 0.0
40859 H 84.7705 53.529 2.39991 H 0.0 **** 0.0
40860 H 82.8417 54.8942 4.09071 H 0.0 **** 0.0
40861 H 83.4311 55.3809 2.44104 H 0.0 **** 0.0
40862 H 85.2539 56.6173 3.42518 H 0.0 **** 0.0
40863 H 99.6785 54.4078 6.16299 H 0.0 **** 0.0
40864 H 100.26 55.8026 7.73506 H 0.0 **** 0.0
40865 H 99.1518 58.1909 6.12179 H 0.0 **** 0.0
40866 H 99.9607 58.3731 7.67781 H 0.0 **** 0.0
40867 H 102.005 58.0951 6.79138 H 0.0 **** 0.0
40868 H 101.305 58.5391 5.27679 H 0.0 **** 0.0
40869 H 102.188 55.7473 6.20872 H 0.0 **** 0.0
40870 H 102.539 56.541 4.67363 H 0.0 **** 0.0
40871 H 101.031 54.6973 4.36215 H 0.0 **** 0.0
40872 H 100.218 56.3431 3.95947 H 0.0 **** 0.0
40873 H 96.8065 55.7151 3.26026 H 0.0 **** 0.0
40874 H 94.2944 56.1213 1.74687 H 0.0 **** 0.0
40875 H 89.6402 55.6078 3.07503 H 0.0 **** 0.0
40876 H 87.5415 53.774 1.1487 H 0.0 **** 0.0
40877 H 88.1712 52.9397 -0.825052 H 0.0 **** 0.0
40878 H 88.2162 55.8557 -1.99414 H 0.0 **** 0.0
40879 H 85.7088 54.3602 -0.830862 H 0.0 **** 0.0
40880 H 85.6561 55.8412 -1.68575 H 0.0 **** 0.0
40881 H 85.7856 55.6433 1.06557 H 0.0 **** 0.0
40882 H 86.3463 57.1124 0.128311 H 0.0 **** 0.0
40883 H 87.8285 56.2218 1.98321 H 0.0 **** 0.0
40884 H 88.6341 56.5499 0.393546 H 0.0 **** 0.0
40885 H 95.7125 59.3151 21.7362 H 0.0 **** 0.0
40886 H 93.2021 60.0744 22.0524 H 0.0 **** 0.0
40887 H 92.7102 58.3928 21.7524 H 0.0 **** 0.0
40888 H 93.5891 59.3829 20.4227 H 0.0 **** 0.0
40889 H 95.8051 58.4808 24.0781 H 0.0 **** 0.0
40890 H 94.0232 57.9748 23.9301 H 0.0 **** 0.0
40891 H 94.6287 59.6773 23.9356 H 0.0 **** 0.0
40892 H 87.8281 56.6788 9.58622 H 0.0 **** 0.0
40893 H 93.3364 51.7003 -2.67942 H 0.0 **** 0.0
40894 H 94.6386 51.8244 -4.73957 H 0.0 **** 0.0
40895 H 93.6175 51.5653 -7.00369 H 0.0 **** 0.0
40896 H 92.3395 49.5139 -8.13846 H 0.0 **** 0.0
40897 H 90.2919 48.8838 -9.32344 H 0.0 **** 0.0
40898 H 85.9328 49.5618 -6.48488 H 0.0 **** 0.0
40899 H 88.383 48.6188 -6.76197 H 0.0 **** 0.0
40900 H 85.7453 55.2848 -3.93816 H 0.0 **** 0.0
40901 H 84.2725 53.5625 -3.77788 H 0.0 **** 0.0
40902 H 83.778 54.3376 -5.31741 H 0.0 **** 0.0
40903 H 82.0289 52.7535 -4.59708 H 0.0 **** 0.0
40904 H 83.2261 51.343 -4.55294 H 0.0 **** 0.0
40905 H 82.522 53.0765 -7.01961 H 0.0 **** 0.0
40906 H 81.8007 51.4017 -6.60685 H 0.0 **** 0.0
40907 C 54.3221 57.1212 20.9221 C 0.0 **** 0.0
40908 C 53.2076 58.1317 21.1508 C 0.0 **** 0.0
40909 C 52.816 58.9196 19.8653 C 0.0 **** 0.0
40910 C 54.0067 59.2444 18.9656 C 0.0 **** 0.0
40911 C 54.7668 57.9318 18.8329 C 0.0 **** 0.0
40912 O 55.3473 57.6214 20.0806 O 0.0 **** 0.0
40913 C 54.8544 60.3897 19.5992 C 0.0 **** 0.0
40914 C 54.0073 61.6614 19.931 C 0.0 **** 0.0
40915 C 52.767 61.3482 20.7534 C 0.0 **** 0.0
40916 C 51.9173 60.176 20.1314 C 0.0 **** 0.0
40917 O 53.5667 62.2554 18.7531 O 0.0 **** 0.0
40918 C 54.6044 62.8056 17.9066 C 0.0 **** 0.0
40919 C 55.5326 61.6847 17.4738 C 0.0 **** 0.0
40920 C 55.9956 60.8426 18.642 C 0.0 **** 0.0
40921 C 56.7245 62.1912 16.6828 C 0.0 **** 0.0
40922 C 57.3882 63.455 17.0334 C 0.0 **** 0.0
40923 C 56.4243 64.5368 17.5585 C 0.0 **** 0.0
40924 C 55.3558 64.0015 18.5334 C 0.0 **** 0.0
40925 C 57.2242 65.6826 18.197 C 0.0 **** 0.0
40926 C 58.2085 66.2933 17.2539 C 0.0 **** 0.0
40927 C 58.9895 65.2928 16.3545 C 0.0 **** 0.0
40928 C 58.2033 64.0653 15.9213 C 0.0 **** 0.0
40929 C 59.1091 63.0364 15.2307 C 0.0 **** 0.0
40930 C 58.2051 61.9243 14.6371 C 0.0 **** 0.0
40931 C 57.1634 61.4088 15.6319 C 0.0 **** 0.0
40932 O 60.2158 64.9993 16.9085 O 0.0 **** 0.0
40933 C 61.0102 66.1429 16.5691 C 0.0 **** 0.0
40934 C 60.5052 67.3812 17.3334 C 0.0 **** 0.0
40935 C 59.2063 67.0155 18.1251 C 0.0 **** 0.0
40936 C 54.4803 65.1553 18.9797 C 0.0 **** 0.0
40937 C 55.1839 66.2896 19.7532 C 0.0 **** 0.0
40938 C 56.3452 66.8175 18.8557 C 0.0 **** 0.0
40939 C 54.2445 67.3867 20.1808 C 0.0 **** 0.0
40940 C 53.1039 67.597 19.5263 C 0.0 **** 0.0
40941 C 52.553 66.6171 18.5253 C 0.0 **** 0.0
40942 C 53.3052 65.365 18.4128 C 0.0 **** 0.0
40943 C 52.2973 68.8287 19.7621 C 0.0 **** 0.0
40944 C 53.1756 69.9963 20.2905 C 0.0 **** 0.0
40945 C 54.0064 69.5136 21.4227 C 0.0 **** 0.0
40946 C 54.4547 68.2558 21.38 C 0.0 **** 0.0
40947 C 54.9632 67.5679 22.6061 C 0.0 **** 0.0
40948 C 54.4832 68.305 23.8649 C 0.0 **** 0.0
40949 C 55.0088 69.7409 23.8068 C 0.0 **** 0.0
40950 C 54.3754 70.4947 22.5887 C 0.0 **** 0.0
40951 C 58.4852 68.2165 18.7937 C 0.0 **** 0.0
40952 C 57.3003 67.7428 19.6518 C 0.0 **** 0.0
40953 C 61.5529 67.9686 18.2915 C 0.0 **** 0.0
40954 C 61.0059 69.3275 18.6876 C 0.0 **** 0.0
40955 S 59.5902 69.1846 19.8559 S 0.0 **** 0.0
40956 C 62.0842 70.2186 19.3256 C 0.0 **** 0.0
40957 C 63.328 70.3061 18.4393 C 0.0 **** 0.0
40958 C 63.8845 68.9177 18.3175 C 0.0 **** 0.0
40959 C 62.8902 68.0383 17.5219 C 0.0 **** 0.0
40960 C 65.2035 68.9281 17.5478 C 0.0 **** 0.0
40961 C 66.2145 70.0528 17.9003 C 0.0 **** 0.0
40962 C 65.6096 71.4276 18.2458 C 0.0 **** 0.0
40963 C 64.3542 71.267 19.1028 C 0.0 **** 0.0
40964 C 66.7156 72.399 18.7136 C 0.0 **** 0.0
40965 C 67.4891 71.8803 19.9052 C 0.0 **** 0.0
40966 C 68.2332 70.5286 19.5898 C 0.0 **** 0.0
40967 C 67.3468 69.5068 18.8087 C 0.0 **** 0.0
40968 C 63.449 66.6306 17.3401 C 0.0 **** 0.0
40969 C 62.4954 65.776 16.5515 C 0.0 **** 0.0
40970 C 65.7516 67.512 17.6304 C 0.0 **** 0.0
40971 C 64.8992 66.6351 16.7234 C 0.0 **** 0.0
40972 C 68.062 68.2254 18.259 C 0.0 **** 0.0
40973 C 67.212 67.5475 17.1925 C 0.0 **** 0.0
40974 C 69.6596 70.6892 18.9864 C 0.0 **** 0.0
40975 C 70.2931 69.3495 18.6051 C 0.0 **** 0.0
40976 C 69.4247 68.5665 17.6369 C 0.0 **** 0.0
40977 O 68.3921 72.8824 20.3593 O 0.0 **** 0.0
40978 C 67.6192 73.7765 21.1348 C 0.0 **** 0.0
40979 C 66.3997 74.372 20.3242 C 0.0 **** 0.0
40980 C 66.3308 73.8914 18.8559 C 0.0 **** 0.0
40981 C 66.2657 75.8811 20.4963 C 0.0 **** 0.0
40982 C 66.4338 76.3263 21.9309 C 0.0 **** 0.0
40983 C 67.8348 75.9355 22.4681 C 0.0 **** 0.0
40984 C 68.5518 74.8573 21.6616 C 0.0 **** 0.0
40985 C 69.6814 74.1938 22.5179 C 0.0 **** 0.0
40986 C 70.2608 75.1763 23.4951 C 0.0 **** 0.0
40987 C 69.1834 75.7453 24.4405 C 0.0 **** 0.0
40988 N 67.8018 75.6167 23.9018 N 0.0 **** 0.0
40989 C 65.5132 65.2397 16.6265 C 0.0 **** 0.0
40990 C 66.9712 65.3302 16.0442 C 0.0 **** 0.0
40991 C 67.8664 66.1483 16.9207 C 0.0 **** 0.0
40992 O 67.5194 64.0175 15.9898 O 0.0 **** 0.0
40993 C 66.7247 63.2614 15.1127 C 0.0 **** 0.0
40994 C 65.2855 63.1511 15.6778 C 0.0 **** 0.0
40995 O 64.7313 64.4453 15.7973 O 0.0 **** 0.0
40996 C 65.0929 62.2896 16.9284 C 0.0 **** 0.0
40997 C 66.3668 61.5403 17.3434 C 0.0 **** 0.0
40998 C 67.1108 60.9299 16.1459 C 0.0 **** 0.0
40999 C 67.288 61.8624 14.9437 C 0.0 **** 0.0
41000 C 70.0846 67.2497 17.1399 C 0.0 **** 0.0
41001 C 69.1735 66.4697 16.201 C 0.0 **** 0.0
41002 C 71.6218 69.6182 17.8943 C 0.0 **** 0.0
41003 C 72.3848 68.4618 17.2472 C 0.0 **** 0.0
41004 C 71.4091 67.6296 16.443 C 0.0 **** 0.0
41005 C 72.6592 70.2569 18.8313 C 0.0 **** 0.0
41006 C 72.048 71.5731 19.4249 C 0.0 **** 0.0
41007 C 70.6341 71.351 19.9567 C 0.0 **** 0.0
41008 O 73.3818 68.981 16.4011 O 0.0 **** 0.0
41009 C 74.4047 69.4066 17.2656 C 0.0 **** 0.0
41010 C 73.8941 70.6306 18.0582 C 0.0 **** 0.0
41011 C 73.0183 72.2745 20.387 C 0.0 **** 0.0
41012 C 74.5314 72.2922 19.8662 C 0.0 **** 0.0
41013 C 74.9511 71.0799 19.0031 C 0.0 **** 0.0
41014 C 75.6182 72.3594 20.998 C 0.0 **** 0.0
41015 C 75.1038 73.2983 22.1134 C 0.0 **** 0.0
41016 C 73.8744 72.6688 22.7589 C 0.0 **** 0.0
41017 C 72.9911 71.7842 21.8258 C 0.0 **** 0.0
41018 C 76.3963 71.1774 18.4485 C 0.0 **** 0.0
41019 C 76.4229 71.0151 16.9434 C 0.0 **** 0.0
41020 C 75.7533 69.6674 16.5447 C 0.0 **** 0.0
41021 C 77.0391 72.6345 20.4237 C 0.0 **** 0.0
41022 C 77.1212 72.4236 18.8899 C 0.0 **** 0.0
41023 C 54.7692 67.4113 25.1649 C 0.0 **** 0.0
41024 C 56.1653 66.7398 25.1384 C 0.0 **** 0.0
41025 C 54.5722 68.1422 26.5272 C 0.0 **** 0.0
41026 O 65.0856 74.1466 18.2896 O 0.0 **** 0.0
41027 C 75.6141 69.6877 15.0214 C 0.0 **** 0.0
41028 C 77.0625 69.7614 14.4795 C 0.0 **** 0.0
41029 C 77.793 71.0426 14.8581 C 0.0 **** 0.0
41030 C 77.8406 71.1336 16.3724 C 0.0 **** 0.0
41031 C 78.4101 72.4741 16.8133 C 0.0 **** 0.0
41032 C 79.8299 72.6177 16.2301 C 0.0 **** 0.0
41033 C 79.7963 72.47 14.698 C 0.0 **** 0.0
41034 C 79.2164 71.0886 14.3455 C 0.0 **** 0.0
41035 C 81.2113 72.6326 14.082 C 0.0 **** 0.0
41036 C 81.8121 73.9875 14.4461 C 0.0 **** 0.0
41037 C 81.834 74.1716 15.9588 C 0.0 **** 0.0
41038 C 80.4221 74.0285 16.5866 C 0.0 **** 0.0
41039 C 80.4709 74.1754 18.1315 C 0.0 **** 0.0
41040 C 79.0872 73.9691 18.7876 C 0.0 **** 0.0
41041 C 78.5207 72.5875 18.3678 C 0.0 **** 0.0
41042 C 81.023 75.5397 18.4934 C 0.0 **** 0.0
41043 C 82.388 75.7399 17.7651 C 0.0 **** 0.0
41044 C 82.2675 75.5853 16.2692 C 0.0 **** 0.0
41045 C 77.6562 73.9776 20.8103 C 0.0 **** 0.0
41046 C 79.1229 74.0205 20.2797 C 0.0 **** 0.0
41047 C 81.1239 75.6672 20.0407 C 0.0 **** 0.0
41048 C 79.8267 75.2469 20.793 C 0.0 **** 0.0
41049 C 80.1672 75.2703 22.3603 C 0.0 **** 0.0
41050 C 80.2981 76.7164 22.7808 C 0.0 **** 0.0
41051 C 81.4701 77.3915 22.0402 C 0.0 **** 0.0
41052 C 81.3556 77.1287 20.5242 C 0.0 **** 0.0
41053 O 81.3008 78.1057 19.7669 O 0.0 **** 0.0
41054 H 53.9069 56.1524 20.4907 H 0.0 **** 0.0
41055 H 54.785 56.8345 21.8549 H 0.0 **** 0.0
41056 H 52.3078 57.602 21.531 H 0.0 **** 0.0
41057 H 53.5132 58.797 21.9855 H 0.0 **** 0.0
41058 H 52.1467 58.2293 19.307 H 0.0 **** 0.0
41059 H 53.5591 59.4809 17.9741 H 0.0 **** 0.0
41060 H 55.5292 58.0347 18.0638 H 0.0 **** 0.0
41061 H 54.1298 57.1208 18.416 H 0.0 **** 0.0
41062 H 55.2896 60.0279 20.5582 H 0.0 **** 0.0
41063 H 54.6343 62.4076 20.5464 H 0.0 **** 0.0
41064 H 52.123 62.2075 20.7058 H 0.0 **** 0.0
41065 H 53.0518 61.113 21.7768 H 0.0 **** 0.0
41066 H 51.3529 60.4443 19.2261 H 0.0 **** 0.0
41067 H 51.1993 59.8721 20.8902 H 0.0 **** 0.0
41068 H 54.1468 63.1822 17.0012 H 0.0 **** 0.0
41069 H 54.9298 61.0342 16.8158 H 0.0 **** 0.0
41070 H 56.7484 61.4126 19.2592 H 0.0 **** 0.0
41071 H 56.6142 59.9676 18.3112 H 0.0 **** 0.0
41072 H 55.9803 63.6876 19.3816 H 0.0 **** 0.0
41073 H 59.6749 63.4886 14.3361 H 0.0 **** 0.0
41074 H 59.8603 62.6363 15.9502 H 0.0 **** 0.0
41075 H 58.9054 61.1317 14.2728 H 0.0 **** 0.0
41076 H 57.6472 62.3517 13.8054 H 0.0 **** 0.0
41077 H 56.6726 60.4737 15.4355 H 0.0 **** 0.0
41078 H 55.5905 65.8129 20.6765 H 0.0 **** 0.0
41079 H 52.5175 67.0796 17.5079 H 0.0 **** 0.0
41080 H 51.5541 66.3792 18.8934 H 0.0 **** 0.0
41081 H 52.8717 64.6788 17.7256 H 0.0 **** 0.0
41082 H 51.7901 69.1576 18.8147 H 0.0 **** 0.0
41083 H 51.4748 68.5664 20.5017 H 0.0 **** 0.0
41084 H 52.5668 70.8753 20.5516 H 0.0 **** 0.0
41085 H 53.8594 70.3004 19.4747 H 0.0 **** 0.0
41086 H 54.5512 66.5562 22.6082 H 0.0 **** 0.0
41087 H 56.0833 67.5028 22.5269 H 0.0 **** 0.0
41088 H 53.3375 68.479 23.8127 H 0.0 **** 0.0
41089 H 56.1427 69.7971 23.7486 H 0.0 **** 0.0
41090 H 54.7205 70.2352 24.7591 H 0.0 **** 0.0
41091 H 55.0558 71.315 22.236 H 0.0 **** 0.0
41092 H 53.4516 70.9701 22.9665 H 0.0 **** 0.0
41093 H 56.7332 68.6083 20.0232 H 0.0 **** 0.0
41094 H 61.6334 71.2165 19.6321 H 0.0 **** 0.0
41095 H 63.9741 72.2431 19.5301 H 0.0 **** 0.0
41096 H 62.6032 64.7599 16.9579 H 0.0 **** 0.0
41097 H 67.1863 73.216 22.0295 H 0.0 **** 0.0
41098 H 65.4867 73.9334 20.8009 H 0.0 **** 0.0
41099 H 67.0578 74.4818 18.255 H 0.0 **** 0.0
41100 H 67.0357 76.4087 19.8244 H 0.0 **** 0.0
41101 H 65.304 76.1811 20.1534 H 0.0 **** 0.0
41102 H 65.6466 75.8566 22.5762 H 0.0 **** 0.0
41103 H 66.282 77.4624 21.9481 H 0.0 **** 0.0
41104 H 68.4252 76.9067 22.2697 H 0.0 **** 0.0
41105 H 69.1058 75.2943 20.7697 H 0.0 **** 0.0
41106 H 69.3734 73.2993 23.0713 H 0.0 **** 0.0
41107 H 70.5255 73.9365 21.8158 H 0.0 **** 0.0
41108 H 70.6543 76.03 22.8943 H 0.0 **** 0.0
41109 H 71.0677 74.7447 24.1026 H 0.0 **** 0.0
41110 H 69.3306 76.8313 24.7422 H 0.0 **** 0.0
41111 H 69.1735 75.1263 25.3634 H 0.0 **** 0.0
41112 H 67.3803 74.6564 23.9899 H 0.0 **** 0.0
41113 H 66.7117 63.7511 14.1085 H 0.0 **** 0.0
41114 H 64.6911 62.6081 14.8827 H 0.0 **** 0.0
41115 H 64.7206 62.9206 17.7722 H 0.0 **** 0.0
41116 H 64.2693 61.5891 16.8363 H 0.0 **** 0.0
41117 H 66.1559 60.7525 18.0695 H 0.0 **** 0.0
41118 H 67.0803 62.2082 17.8884 H 0.0 **** 0.0
41119 H 66.5684 60.0648 15.7874 H 0.0 **** 0.0
41120 H 68.088 60.5061 16.4691 H 0.0 **** 0.0
41121 H 66.9076 61.3208 14.0306 H 0.0 **** 0.0
41122 H 68.367 61.9988 14.7019 H 0.0 **** 0.0
41123 H 69.6694 65.5362 15.8835 H 0.0 **** 0.0
41124 H 71.9456 66.6966 16.0789 H 0.0 **** 0.0
41125 H 70.6614 70.7223 20.8949 H 0.0 **** 0.0
41126 H 72.7256 73.317 20.4303 H 0.0 **** 0.0
41127 H 74.6209 73.2547 19.2393 H 0.0 **** 0.0
41128 H 75.7286 71.3733 21.461 H 0.0 **** 0.0
41129 H 74.9322 74.2943 21.736 H 0.0 **** 0.0
41130 H 75.8364 73.3666 22.9545 H 0.0 **** 0.0
41131 H 73.2336 73.4807 23.1983 H 0.0 **** 0.0
41132 H 74.1801 71.9844 23.6065 H 0.0 **** 0.0
41133 H 72.0206 71.7858 22.2556 H 0.0 **** 0.0
41134 H 73.3966 70.7048 21.8766 H 0.0 **** 0.0
41135 H 54.0343 66.6277 25.2215 H 0.0 **** 0.0
41136 H 56.4087 66.1148 26.0699 H 0.0 **** 0.0
41137 H 56.895 67.538 25.1056 H 0.0 **** 0.0
41138 H 56.184 66.0067 24.3162 H 0.0 **** 0.0
41139 H 53.5788 68.646 26.4717 H 0.0 **** 0.0
41140 H 55.323 68.9601 26.5823 H 0.0 **** 0.0
41141 H 54.5643 67.4558 27.387 H 0.0 **** 0.0
41142 H 65.0954 73.9488 17.3328 H 0.0 **** 0.0
41143 H 75.2219 68.6779 14.7311 H 0.0 **** 0.0
41144 H 77.0791 69.6063 13.4268 H 0.0 **** 0.0
41145 H 79.1628 70.9428 13.2372 H 0.0 **** 0.0
41146 H 81.8646 71.8166 14.4814 H 0.0 **** 0.0
41147 H 82.8869 74.0335 14.1131 H 0.0 **** 0.0
41148 H 82.8468 76.7102 18.0898 H 0.0 **** 0.0
41149 H 83.2269 75.7565 15.8281 H 0.0 **** 0.0
41150 H 77.6156 74.1583 21.8757 H 0.0 **** 0.0
41151 H 79.4314 74.8134 23.018 H 0.0 **** 0.0
41152 H 81.1638 74.8076 22.5216 H 0.0 **** 0.0
41153 H 80.5078 76.6892 23.8536 H 0.0 **** 0.0
41154 H 79.3822 77.2973 22.521 H 0.0 **** 0.0
41155 H 82.4381 76.9577 22.3882 H 0.0 **** 0.0
41156 H 81.4213 78.4959 22.2356 H 0.0 **** 0.0
41157 C 54.3383 27.2098 97.2803 C 0.0 **** 0.0
41158 C 55.5078 27.2397 98.2882 C 0.0 **** 0.0
41159 C 56.6343 28.1668 97.8608 C 0.0 **** 0.0
41160 C 56.917 27.9827 96.3178 C 0.0 **** 0.0
41161 C 55.5614 27.8889 95.4834 C 0.0 **** 0.0
41162 O 54.4701 28.1803 96.2673 O 0.0 **** 0.0
41163 C 57.8544 26.8136 95.9334 C 0.0 **** 0.0
41164 C 58.9748 26.5052 97.0141 C 0.0 **** 0.0
41165 C 59.2033 27.7346 97.8722 C 0.0 **** 0.0
41166 C 57.9366 28.031 98.7352 C 0.0 **** 0.0
41167 O 60.2315 26.1079 96.4743 O 0.0 **** 0.0
41168 C 60.1467 25.271 95.3209 C 0.0 **** 0.0
41169 C 59.4823 26.0207 94.104 C 0.0 **** 0.0
41170 C 58.5063 27.1101 94.549 C 0.0 **** 0.0
41171 C 58.8392 25.0461 93.1113 C 0.0 **** 0.0
41172 C 58.1258 23.8913 93.5505 C 0.0 **** 0.0
41173 C 58.9867 23.043 94.466 C 0.0 **** 0.0
41174 C 59.5217 23.8611 95.6635 C 0.0 **** 0.0
41175 C 58.1964 21.7939 94.9965 C 0.0 **** 0.0
41176 C 57.5429 21.0214 93.8528 C 0.0 **** 0.0
41177 C 56.7325 21.8962 92.8605 C 0.0 **** 0.0
41178 C 57.723 22.9538 92.386 C 0.0 **** 0.0
41179 C 57.226 23.7716 91.1737 C 0.0 **** 0.0
41180 C 58.3652 24.5694 90.5964 C 0.0 **** 0.0
41181 C 59.0213 25.3567 91.7154 C 0.0 **** 0.0
41182 O 56.0508 21.2088 91.8465 O 0.0 **** 0.0
41183 C 56.4959 19.8781 91.6592 C 0.0 **** 0.0
41184 C 56.2167 19.0416 92.9529 C 0.0 **** 0.0
41185 C 56.8162 19.7637 94.2315 C 0.0 **** 0.0
41186 C 60.3746 22.8896 96.4278 C 0.0 **** 0.0
41187 C 59.7358 21.6497 97.0192 C 0.0 **** 0.0
41188 C 59.1533 20.8958 95.8197 C 0.0 **** 0.0
41189 C 60.6797 20.7697 97.8413 C 0.0 **** 0.0
41190 C 62.0033 20.708 97.538 C 0.0 **** 0.0
41191 C 62.6359 21.7788 96.6385 C 0.0 **** 0.0
41192 C 61.7414 22.9423 96.3044 C 0.0 **** 0.0
41193 C 62.8867 19.5713 98.0588 C 0.0 **** 0.0
41194 C 62.0615 18.2705 98.1651 C 0.0 **** 0.0
41195 C 60.8169 18.5453 98.9791 C 0.0 **** 0.0
41196 C 60.1522 19.7394 98.7844 C 0.0 **** 0.0
41197 C 58.9358 20.002 99.6804 C 0.0 **** 0.0
41198 C 59.1428 19.3128 101.048 C 0.0 **** 0.0
41199 C 59.1065 17.815 100.758 C 0.0 **** 0.0
41200 C 60.3155 17.4078 99.8964 C 0.0 **** 0.0
41201 C 57.8274 18.87 94.9798 C 0.0 **** 0.0
41202 C 58.5744 19.5195 96.1368 C 0.0 **** 0.0
41203 C 56.7004 17.594 92.8321 C 0.0 **** 0.0
41204 C 56.2337 16.8143 94.0926 C 0.0 **** 0.0
41205 S 56.9568 17.4647 95.6683 S 0.0 **** 0.0
41206 C 56.6721 15.3334 93.9803 C 0.0 **** 0.0
41207 C 56.1729 14.7078 92.6827 C 0.0 **** 0.0
41208 C 56.5932 15.5194 91.4464 C 0.0 **** 0.0
41209 C 56.0597 16.9516 91.5832 C 0.0 **** 0.0
41210 C 55.9837 14.8246 90.2176 C 0.0 **** 0.0
41211 C 56.5319 13.3784 90.086 C 0.0 **** 0.0
41212 C 56.0898 12.5664 91.3053 C 0.0 **** 0.0
41213 C 56.6215 13.2762 92.6052 C 0.0 **** 0.0
41214 C 56.5882 11.1391 91.1949 C 0.0 **** 0.0
41215 C 56.2967 10.4285 89.9064 C 0.0 **** 0.0
41216 C 56.5186 11.2677 88.6549 C 0.0 **** 0.0
41217 C 55.9569 12.7174 88.8064 C 0.0 **** 0.0
41218 C 56.346 17.7805 90.3385 C 0.0 **** 0.0
41219 C 55.7849 19.2146 90.4535 C 0.0 **** 0.0
41220 C 56.2984 15.6214 88.9522 C 0.0 **** 0.0
41221 C 55.8098 17.0779 89.0935 C 0.0 **** 0.0
41222 C 56.2167 13.5225 87.5574 C 0.0 **** 0.0
41223 C 55.708 14.9806 87.698 C 0.0 **** 0.0
41224 C 56.0431 10.5181 87.4069 C 0.0 **** 0.0
41225 C 56.0935 11.4643 86.1982 C 0.0 **** 0.0
41226 C 55.489 12.8671 86.3967 C 0.0 **** 0.0
41227 O 57.1313 9.32208 89.7892 O 0.0 **** 0.0
41228 C 56.7935 8.30851 90.7036 C 0.0 **** 0.0
41229 C 56.9874 8.81217 92.161 C 0.0 **** 0.0
41230 C 56.1722 10.1522 92.3539 C 0.0 **** 0.0
41231 C 58.451 8.97534 92.4717 C 0.0 **** 0.0
41232 C 59.2933 7.72959 92.2335 C 0.0 **** 0.0
41233 C 59.1991 7.29723 90.7627 C 0.0 **** 0.0
41234 C 57.6635 7.11856 90.3454 C 0.0 **** 0.0
41235 C 57.0554 5.7795 90.881 C 0.0 **** 0.0
41236 C 57.9774 4.56934 90.5746 C 0.0 **** 0.0
41237 C 59.2694 4.95104 89.8819 C 0.0 **** 0.0
41238 N 59.99 6.07338 90.5519 N 0.0 **** 0.0
41239 C 56.1651 17.8685 87.7859 C 0.0 **** 0.0
41240 C 55.5282 17.2685 86.58 C 0.0 **** 0.0
41241 C 55.9536 15.7811 86.4378 C 0.0 **** 0.0
41242 O 55.7409 18.0895 85.4373 O 0.0 **** 0.0
41243 C 57.0976 18.3951 85.1987 C 0.0 **** 0.0
41244 C 57.6378 19.0751 86.4312 C 0.0 **** 0.0
41245 O 57.5476 18.1212 87.5318 O 0.0 **** 0.0
41246 C 56.9819 20.4988 86.6996 C 0.0 **** 0.0
41247 C 56.4164 21.2239 85.4177 C 0.0 **** 0.0
41248 C 57.2491 20.8306 84.1803 C 0.0 **** 0.0
41249 C 57.2815 19.2806 83.9076 C 0.0 **** 0.0
41250 C 55.7439 13.6664 85.0962 C 0.0 **** 0.0
41251 C 55.3635 15.136 85.1805 C 0.0 **** 0.0
41252 C 55.3946 10.8031 84.9932 C 0.0 **** 0.0
41253 C 55.4269 11.6644 83.7184 C 0.0 **** 0.0
41254 C 54.9152 13.0112 83.9766 C 0.0 **** 0.0
41255 C 55.9722 9.37406 84.6895 C 0.0 **** 0.0
41256 C 57.1312 8.94639 85.6194 C 0.0 **** 0.0
41257 C 56.7787 9.15684 87.072 C 0.0 **** 0.0
41258 O 54.703 11.0395 82.7318 O 0.0 **** 0.0
41259 C 55.2792 9.8428 82.3301 C 0.0 **** 0.0
41260 C 56.4674 9.36256 83.2398 C 0.0 **** 0.0
41261 C 57.8367 7.54334 85.204 C 0.0 **** 0.0
41262 C 58.1172 7.45333 83.6934 C 0.0 **** 0.0
41263 C 56.9309 7.97844 82.8113 C 0.0 **** 0.0
41264 C 58.3375 5.96405 83.1894 C 0.0 **** 0.0
41265 C 59.0452 5.16389 84.302 C 0.0 **** 0.0
41266 C 58.1605 4.98804 85.5359 C 0.0 **** 0.0
41267 C 57.1985 6.22111 85.6603 C 0.0 **** 0.0
41268 C 57.2752 7.95795 81.3069 C 0.0 **** 0.0
41269 C 56.0143 8.38405 80.4711 C 0.0 **** 0.0
41270 C 55.6455 9.86731 80.8467 C 0.0 **** 0.0
41271 C 58.9221 6.07008 81.7477 C 0.0 **** 0.0
41272 C 57.7113 6.53316 80.8963 C 0.0 **** 0.0
41273 C 58.1198 19.7933 102.11 C 0.0 **** 0.0
41274 C 56.7303 19.1911 101.85 C 0.0 **** 0.0
41275 C 58.5877 19.3369 103.542 C 0.0 **** 0.0
41276 O 54.7453 9.88537 92.3392 O 0.0 **** 0.0
41277 C 54.4717 10.3172 80.0433 C 0.0 **** 0.0
41278 C 54.5305 10.0302 78.5651 C 0.0 **** 0.0
41279 C 54.9009 8.59778 78.3376 C 0.0 **** 0.0
41280 C 56.2749 8.31326 78.9985 C 0.0 **** 0.0
41281 C 56.6738 6.87951 78.6916 C 0.0 **** 0.0
41282 C 56.7386 6.72855 77.1852 C 0.0 **** 0.0
41283 C 55.3469 6.92273 76.6063 C 0.0 **** 0.0
41284 C 54.8961 8.3394 76.8299 C 0.0 **** 0.0
41285 C 55.2241 6.59179 75.0989 C 0.0 **** 0.0
41286 C 56.0031 5.34214 74.7028 C 0.0 **** 0.0
41287 C 57.3914 5.25495 75.3033 C 0.0 **** 0.0
41288 C 57.2539 5.3179 76.8246 C 0.0 **** 0.0
41289 C 58.5733 4.94673 77.5573 C 0.0 **** 0.0
41290 C 58.4404 5.03864 79.071 C 0.0 **** 0.0
41291 C 58.0067 6.50141 79.3947 C 0.0 **** 0.0
41292 C 59.2554 3.66394 77.0386 C 0.0 **** 0.0
41293 C 59.4143 3.75822 75.5427 C 0.0 **** 0.0
41294 C 58.0742 3.96234 74.85 C 0.0 **** 0.0
41295 C 59.5253 4.73902 81.322 C 0.0 **** 0.0
41296 C 59.7639 4.74048 79.8019 C 0.0 **** 0.0
41297 C 60.5926 3.43642 77.7427 C 0.0 **** 0.0
41298 C 60.4567 3.4422 79.3237 C 0.0 **** 0.0
41299 C 61.7953 3.18058 80.0087 C 0.0 **** 0.0
41300 C 62.4642 1.86618 79.5131 C 0.0 **** 0.0
41301 C 61.7757 1.18325 78.28 C 0.0 **** 0.0
41302 C 61.416 2.24858 77.3063 C 0.0 **** 0.0
41303 O 61.9359 2.2539 76.2084 O 0.0 **** 0.0
41304 H 53.4025 27.4441 97.8344 H 0.0 **** 0.0
41305 H 54.2409 26.2038 96.8504 H 0.0 **** 0.0
41306 H 55.1651 27.6088 99.2627 H 0.0 **** 0.0
41307 H 55.9611 26.2126 98.3893 H 0.0 **** 0.0
41308 H 56.3073 29.2063 98.003 H 0.0 **** 0.0
41309 H 57.4498 28.9288 96.0306 H 0.0 **** 0.0
41310 H 55.4181 26.8949 94.9658 H 0.0 **** 0.0
41311 H 55.6718 28.6487 94.7202 H 0.0 **** 0.0
41312 H 57.2067 25.8922 95.8203 H 0.0 **** 0.0
41313 H 58.5804 25.6709 97.6717 H 0.0 **** 0.0
41314 H 59.4857 28.6119 97.2418 H 0.0 **** 0.0
41315 H 60.0413 27.5162 98.5678 H 0.0 **** 0.0
41316 H 58.1612 28.9111 99.4036 H 0.0 **** 0.0
41317 H 57.8472 27.2117 99.4993 H 0.0 **** 0.0
41318 H 61.1749 25.1429 94.974 H 0.0 **** 0.0
41319 H 60.3413 26.5524 93.5844 H 0.0 **** 0.0
41320 H 57.7345 27.2839 93.7497 H 0.0 **** 0.0
41321 H 59.0886 28.0719 94.6901 H 0.0 **** 0.0
41322 H 58.6249 23.9806 96.2647 H 0.0 **** 0.0
41323 H 56.8612 23.018 90.4052 H 0.0 **** 0.0
41324 H 56.4358 24.5096 91.4668 H 0.0 **** 0.0
41325 H 57.9031 25.2404 89.851 H 0.0 **** 0.0
41326 H 59.0482 23.8404 90.0564 H 0.0 **** 0.0
41327 H 59.5423 26.2618 91.4306 H 0.0 **** 0.0
41328 H 58.8692 22.0642 97.6314 H 0.0 **** 0.0
41329 H 63.0724 21.3386 95.6972 H 0.0 **** 0.0
41330 H 63.562 22.1295 97.1869 H 0.0 **** 0.0
41331 H 62.2379 23.8288 95.9962 H 0.0 **** 0.0
41332 H 63.7441 19.3949 97.3823 H 0.0 **** 0.0
41333 H 63.3748 19.8395 99.0218 H 0.0 **** 0.0
41334 H 62.7038 17.4575 98.5764 H 0.0 **** 0.0
41335 H 61.7374 17.9256 97.1637 H 0.0 **** 0.0
41336 H 58.7985 21.1356 99.7897 H 0.0 **** 0.0
41337 H 57.98 19.68 99.2061 H 0.0 **** 0.0
41338 H 60.1663 19.6582 101.397 H 0.0 **** 0.0
41339 H 58.2153 17.5194 100.224 H 0.0 **** 0.0
41340 H 59.2563 17.2325 101.716 H 0.0 **** 0.0
41341 H 60.0729 16.4956 99.3274 H 0.0 **** 0.0
41342 H 61.1785 17.1567 100.547 H 0.0 **** 0.0
41343 H 59.3454 18.8519 96.5722 H 0.0 **** 0.0
41344 H 56.2808 14.7167 94.8496 H 0.0 **** 0.0
41345 H 56.1542 12.7022 93.4011 H 0.0 **** 0.0
41346 H 54.6807 19.226 90.565 H 0.0 **** 0.0
41347 H 55.7069 8.02727 90.5469 H 0.0 **** 0.0
41348 H 56.6081 8.06594 92.8772 H 0.0 **** 0.0
41349 H 56.5689 10.5295 93.3372 H 0.0 **** 0.0
41350 H 58.836 9.80997 91.8646 H 0.0 **** 0.0
41351 H 58.5922 9.22165 93.5218 H 0.0 **** 0.0
41352 H 58.9641 6.94009 92.9431 H 0.0 **** 0.0
41353 H 60.4067 7.98732 92.4698 H 0.0 **** 0.0
41354 H 59.6252 8.10592 90.1856 H 0.0 **** 0.0
41355 H 57.6671 7.02299 89.2247 H 0.0 **** 0.0
41356 H 56.7907 5.72273 91.9642 H 0.0 **** 0.0
41357 H 56.1414 5.66657 90.2795 H 0.0 **** 0.0
41358 H 57.4099 3.93448 89.9543 H 0.0 **** 0.0
41359 H 58.2428 3.97772 91.4579 H 0.0 **** 0.0
41360 H 59.0709 5.27471 88.8618 H 0.0 **** 0.0
41361 H 59.8953 4.03075 89.8403 H 0.0 **** 0.0
41362 H 60.4582 5.67181 91.4389 H 0.0 **** 0.0
41363 H 57.6713 17.4701 85.0518 H 0.0 **** 0.0
41364 H 58.7242 19.2823 86.2606 H 0.0 **** 0.0
41365 H 56.1135 20.3315 87.3723 H 0.0 **** 0.0
41366 H 57.6869 21.1419 87.2846 H 0.0 **** 0.0
41367 H 56.478 22.3142 85.5929 H 0.0 **** 0.0
41368 H 55.2716 21.0414 85.3137 H 0.0 **** 0.0
41369 H 58.2614 21.1504 84.4705 H 0.0 **** 0.0
41370 H 56.8762 21.3835 83.2614 H 0.0 **** 0.0
41371 H 58.2584 19.0673 83.4272 H 0.0 **** 0.0
41372 H 56.4769 19.0228 83.1645 H 0.0 **** 0.0
41373 H 55.8068 15.6189 84.3057 H 0.0 **** 0.0
41374 H 54.8949 13.6336 83.0317 H 0.0 **** 0.0
41375 H 56.0594 8.35127 87.3866 H 0.0 **** 0.0
41376 H 58.8016 7.63138 85.7703 H 0.0 **** 0.0
41377 H 58.984 8.05095 83.5221 H 0.0 **** 0.0
41378 H 57.2949 5.44961 83.0713 H 0.0 **** 0.0
41379 H 60.0108 5.68516 84.5143 H 0.0 **** 0.0
41380 H 59.3057 4.1657 83.8945 H 0.0 **** 0.0
41381 H 58.8236 4.92053 86.4507 H 0.0 **** 0.0
41382 H 57.5256 4.05064 85.5539 H 0.0 **** 0.0
41383 H 56.9223 6.2723 86.7639 H 0.0 **** 0.0
41384 H 56.2665 6.06304 85.0969 H 0.0 **** 0.0
41385 H 57.9721 20.926 102.077 H 0.0 **** 0.0
41386 H 55.998 19.5317 102.599 H 0.0 **** 0.0
41387 H 56.7483 18.0812 101.968 H 0.0 **** 0.0
41388 H 56.4301 19.4745 100.823 H 0.0 **** 0.0
41389 H 59.6594 19.6565 103.705 H 0.0 **** 0.0
41390 H 58.407 18.2695 103.756 H 0.0 **** 0.0
41391 H 57.97 19.8898 104.264 H 0.0 **** 0.0
41392 H 54.2831 10.6787 92.7747 H 0.0 **** 0.0
41393 H 54.3261 11.4346 80.1455 H 0.0 **** 0.0
41394 H 53.5801 10.259 78.052 H 0.0 **** 0.0
41395 H 53.8694 8.43136 76.409 H 0.0 **** 0.0
41396 H 54.14 6.4401 74.8439 H 0.0 **** 0.0
41397 H 55.3518 4.47687 74.8858 H 0.0 **** 0.0
41398 H 59.8565 2.85974 75.0806 H 0.0 **** 0.0
41399 H 57.4085 3.11236 75.066 H 0.0 **** 0.0
41400 H 60.4443 4.67165 81.9198 H 0.0 **** 0.0
41401 H 62.5321 3.99855 79.8307 H 0.0 **** 0.0
41402 H 61.7362 3.14984 81.1323 H 0.0 **** 0.0
41403 H 62.4804 1.19319 80.3921 H 0.0 **** 0.0
41404 H 63.5065 2.0952 79.2254 H 0.0 **** 0.0
41405 H 60.8476 0.657568 78.5859 H 0.0 **** 0.0
41406 H 62.4578 0.431351 77.8852 H 0.0 **** 0.0
41407 C 87.478 63.5953 88.1131 C 0.0 **** 0.0
41408 C 87.7867 64.9363 88.8139 C 0.0 **** 0.0
41409 C 88.0792 65.9826 87.7685 C 0.0 **** 0.0
41410 C 89.1517 65.6002 86.7168 C 0.0 **** 0.0
41411 C 89.3442 64.0657 86.6925 C 0.0 **** 0.0
41412 O 88.1232 63.3928 86.8469 O 0.0 **** 0.0
41413 C 90.4465 66.4004 86.9372 C 0.0 **** 0.0
41414 C 90.2293 67.9452 86.8824 C 0.0 **** 0.0
41415 C 88.916 68.3925 87.512 C 0.0 **** 0.0
41416 C 88.3303 67.3826 88.468 C 0.0 **** 0.0
41417 O 90.2571 68.5524 85.562 O 0.0 **** 0.0
41418 C 91.4507 68.2348 84.8171 C 0.0 **** 0.0
41419 C 91.6423 66.6837 84.6756 C 0.0 **** 0.0
41420 C 91.6545 66.0378 86.037 C 0.0 **** 0.0
41421 C 92.8945 66.367 83.8814 C 0.0 **** 0.0
41422 C 94.1035 66.9793 84.3082 C 0.0 **** 0.0
41423 C 93.977 68.5023 84.4652 C 0.0 **** 0.0
41424 C 92.7581 68.9456 85.3297 C 0.0 **** 0.0
41425 C 95.27 69.0981 85.0549 C 0.0 **** 0.0
41426 C 96.525 68.6699 84.3068 C 0.0 **** 0.0
41427 C 96.5628 67.1362 84.2676 C 0.0 **** 0.0
41428 C 95.3259 66.6397 83.4614 C 0.0 **** 0.0
41429 C 95.3258 65.1798 83.1243 C 0.0 **** 0.0
41430 C 94.1147 64.8847 82.2425 C 0.0 **** 0.0
41431 C 92.858 65.4268 82.9018 C 0.0 **** 0.0
41432 O 97.7921 66.5365 83.8017 O 0.0 **** 0.0
41433 C 98.7416 67.4641 83.3664 C 0.0 **** 0.0
41434 C 99.0759 68.4461 84.4704 C 0.0 **** 0.0
41435 C 97.779 69.1762 85.0013 C 0.0 **** 0.0
41436 C 92.7811 70.4716 85.3282 C 0.0 **** 0.0
41437 C 93.9972 71.1305 85.9738 C 0.0 **** 0.0
41438 C 95.2317 70.661 85.1063 C 0.0 **** 0.0
41439 C 93.9137 72.6673 86.0485 C 0.0 **** 0.0
41440 C 93.0411 73.3899 85.2965 C 0.0 **** 0.0
41441 C 91.8575 72.7172 84.6229 C 0.0 **** 0.0
41442 C 91.8217 71.2231 84.7279 C 0.0 **** 0.0
41443 C 93.1146 74.8852 85.2908 C 0.0 **** 0.0
41444 C 94.4508 75.4244 85.7056 C 0.0 **** 0.0
41445 C 94.9999 74.7323 86.9155 C 0.0 **** 0.0
41446 C 94.7364 73.4089 87.0786 C 0.0 **** 0.0
41447 C 95.105 72.6644 88.3463 C 0.0 **** 0.0
41448 C 95.7506 73.5438 89.4367 C 0.0 **** 0.0
41449 C 96.7044 74.5306 88.7975 C 0.0 **** 0.0
41450 C 95.9703 75.4818 87.8175 C 0.0 **** 0.0
41451 C 97.8595 70.6968 85.0012 C 0.0 **** 0.0
41452 C 96.5444 71.2196 85.6328 C 0.0 **** 0.0
41453 C 100.129 69.3856 83.9758 C 0.0 **** 0.0
41454 C 100.591 70.3188 85.115 C 0.0 **** 0.0
41455 S 99.2734 71.2496 85.9896 S 0.0 **** 0.0
41456 C 101.59 71.317 84.6212 C 0.0 **** 0.0
41457 C 102.803 70.6487 83.9332 C 0.0 **** 0.0
41458 C 102.415 69.5659 82.9478 C 0.0 **** 0.0
41459 C 101.356 68.5961 83.5152 C 0.0 **** 0.0
41460 C 103.722 68.8863 82.5945 C 0.0 **** 0.0
41461 C 104.693 69.8512 81.8351 C 0.0 **** 0.0
41462 C 104.909 71.1391 82.6623 C 0.0 **** 0.0
41463 C 103.575 71.7442 83.1937 C 0.0 **** 0.0
41464 C 105.791 72.0902 81.7966 C 0.0 **** 0.0
41465 C 107.214 71.4419 81.5817 C 0.0 **** 0.0
41466 C 107.166 70.0355 80.956 C 0.0 **** 0.0
41467 C 106.07 69.1741 81.6796 C 0.0 **** 0.0
41468 C 101.138 67.4816 82.5023 C 0.0 **** 0.0
41469 C 99.9633 66.6241 82.9754 C 0.0 **** 0.0
41470 C 103.54 67.5753 81.7724 C 0.0 **** 0.0
41471 C 102.446 66.663 82.2908 C 0.0 **** 0.0
41472 C 105.957 67.8041 80.9782 C 0.0 **** 0.0
41473 C 104.938 66.9389 81.7423 C 0.0 **** 0.0
41474 C 108.545 69.3346 80.8547 C 0.0 **** 0.0
41475 C 108.574 67.901 81.3832 C 0.0 **** 0.0
41476 C 107.377 67.1253 80.8047 C 0.0 **** 0.0
41477 O 108.036 72.3329 80.8487 O 0.0 **** 0.0
41478 C 108.575 73.2261 81.8768 C 0.0 **** 0.0
41479 C 107.446 73.75 82.8758 C 0.0 **** 0.0
41480 C 106.024 73.5839 82.1781 C 0.0 **** 0.0
41481 C 107.72 75.1659 83.4119 C 0.0 **** 0.0
41482 C 109.215 75.4195 83.5752 C 0.0 **** 0.0
41483 C 109.902 75.404 82.1566 C 0.0 **** 0.0
41484 C 109.325 74.3769 81.1532 C 0.0 **** 0.0
41485 C 110.44 73.7723 80.2522 C 0.0 **** 0.0
41486 C 111.467 74.798 79.851 C 0.0 **** 0.0
41487 C 112.152 75.4054 81.0978 C 0.0 **** 0.0
41488 N 111.371 75.2605 82.3392 N 0.0 **** 0.0
41489 C 102.366 65.3505 81.3828 C 0.0 **** 0.0
41490 C 103.597 65.1287 80.5106 C 0.0 **** 0.0
41491 C 104.88 65.4436 81.2899 C 0.0 **** 0.0
41492 O 103.571 63.7918 80.0895 O 0.0 **** 0.0
41493 C 102.422 63.5565 79.2717 C 0.0 **** 0.0
41494 C 101.127 64.0979 79.8996 C 0.0 **** 0.0
41495 O 101.252 65.3762 80.5017 O 0.0 **** 0.0
41496 C 100.376 63.1139 80.7998 C 0.0 **** 0.0
41497 C 101.31 62.0029 81.4084 C 0.0 **** 0.0
41498 C 102.044 61.271 80.2402 C 0.0 **** 0.0
41499 C 102.22 62.0591 78.9632 C 0.0 **** 0.0
41500 C 107.428 65.6416 81.1709 C 0.0 **** 0.0
41501 C 106.17 64.9302 80.6361 C 0.0 **** 0.0
41502 C 109.874 67.2337 81.0212 C 0.0 **** 0.0
41503 C 109.979 65.7163 81.3089 C 0.0 **** 0.0
41504 C 108.779 65.0322 80.6867 C 0.0 **** 0.0
41505 C 111.042 67.9975 81.6656 C 0.0 **** 0.0
41506 C 111.065 69.3407 80.9666 C 0.0 **** 0.0
41507 C 109.801 70.1208 81.2764 C 0.0 **** 0.0
41508 O 111.13 65.2728 80.6848 O 0.0 **** 0.0
41509 C 112.192 65.6221 81.5487 C 0.0 **** 0.0
41510 C 112.364 67.2001 81.6565 C 0.0 **** 0.0
41511 C 112.393 70.1405 81.227 C 0.0 **** 0.0
41512 C 113.622 69.2728 80.7986 C 0.0 **** 0.0
41513 C 113.329 67.7887 80.6178 C 0.0 **** 0.0
41514 C 114.854 69.5027 81.7095 C 0.0 **** 0.0
41515 C 114.918 71.0198 82.0918 C 0.0 **** 0.0
41516 C 113.692 71.4186 82.9959 C 0.0 **** 0.0
41517 C 112.454 70.5777 82.7098 C 0.0 **** 0.0
41518 C 114.643 66.902 80.4497 C 0.0 **** 0.0
41519 C 114.729 65.7132 81.4191 C 0.0 **** 0.0
41520 C 113.454 64.8713 81.0935 C 0.0 **** 0.0
41521 C 116.128 68.9682 81.0021 C 0.0 **** 0.0
41522 C 115.959 67.6688 80.2482 C 0.0 **** 0.0
41523 C 96.444 72.6835 90.5653 C 0.0 **** 0.0
41524 C 97.5009 71.6818 89.9951 C 0.0 **** 0.0
41525 C 97.0712 73.4965 91.7302 C 0.0 **** 0.0
41526 O 104.967 74.1764 82.9309 O 0.0 **** 0.0
41527 C 113.412 63.454 81.7171 C 0.0 **** 0.0
41528 C 114.76 62.6861 81.5182 C 0.0 **** 0.0
41529 C 115.984 63.5647 81.8306 C 0.0 **** 0.0
41530 C 115.945 64.88 81.0328 C 0.0 **** 0.0
41531 C 117.252 65.6821 81.1191 C 0.0 **** 0.0
41532 C 118.464 64.7884 80.7618 C 0.0 **** 0.0
41533 C 118.529 63.6108 81.7342 C 0.0 **** 0.0
41534 C 117.258 62.7502 81.6416 C 0.0 **** 0.0
41535 C 119.72 62.7484 81.3461 C 0.0 **** 0.0
41536 C 120.969 63.5546 81.3658 C 0.0 **** 0.0
41537 C 120.942 64.7226 80.3595 C 0.0 **** 0.0
41538 C 119.793 65.5847 80.7644 C 0.0 **** 0.0
41539 C 119.713 66.9159 80.0097 C 0.0 **** 0.0
41540 C 118.454 67.7381 80.4222 C 0.0 **** 0.0
41541 C 117.247 66.8436 80.1398 C 0.0 **** 0.0
41542 C 121.003 67.7091 80.1753 C 0.0 **** 0.0
41543 C 122.157 66.8539 79.6047 C 0.0 **** 0.0
41544 C 122.236 65.5311 80.3965 C 0.0 **** 0.0
41545 C 117.122 69.892 80.3077 C 0.0 **** 0.0
41546 C 118.341 69.1036 79.7089 C 0.0 **** 0.0
41547 C 120.958 69.0997 79.5019 C 0.0 **** 0.0
41548 C 119.666 69.8786 79.733 C 0.0 **** 0.0
41549 C 119.682 71.2115 78.978 C 0.0 **** 0.0
41550 C 121.05 71.7053 78.4743 C 0.0 **** 0.0
41551 C 122.19 71.4135 79.411 C 0.0 **** 0.0
41552 C 122.117 70.0139 79.906 C 0.0 **** 0.0
41553 O 122.891 69.5924 80.7858 O 0.0 **** 0.0
41554 H 86.3614 63.5897 87.9874 H 0.0 **** 0.0
41555 H 87.7323 62.7293 88.7587 H 0.0 **** 0.0
41556 H 86.8938 65.282 89.3856 H 0.0 **** 0.0
41557 H 88.6688 64.857 89.5318 H 0.0 **** 0.0
41558 H 87.1478 66.0734 87.2061 H 0.0 **** 0.0
41559 H 88.7358 65.8835 85.7625 H 0.0 **** 0.0
41560 H 90.097 63.7375 87.455 H 0.0 **** 0.0
41561 H 89.7817 63.7014 85.7154 H 0.0 **** 0.0
41562 H 90.7729 66.1061 87.9919 H 0.0 **** 0.0
41563 H 90.995 68.4653 87.4962 H 0.0 **** 0.0
41564 H 88.1146 68.5903 86.6957 H 0.0 **** 0.0
41565 H 89.0929 69.3691 88.0351 H 0.0 **** 0.0
41566 H 87.3341 67.755 88.8228 H 0.0 **** 0.0
41567 H 88.9652 67.2524 89.3672 H 0.0 **** 0.0
41568 H 91.2488 68.5778 83.8082 H 0.0 **** 0.0
41569 H 90.7927 66.329 84.1009 H 0.0 **** 0.0
41570 H 92.6277 66.3121 86.5061 H 0.0 **** 0.0
41571 H 91.6788 64.9408 85.8677 H 0.0 **** 0.0
41572 H 92.9751 68.5972 86.373 H 0.0 **** 0.0
41573 H 96.2351 64.9852 82.5907 H 0.0 **** 0.0
41574 H 95.2959 64.5496 84.0149 H 0.0 **** 0.0
41575 H 94.0541 63.824 82.1026 H 0.0 **** 0.0
41576 H 94.281 65.388 81.2384 H 0.0 **** 0.0
41577 H 91.868 65.1101 82.5281 H 0.0 **** 0.0
41578 H 94.182 70.6357 86.9867 H 0.0 **** 0.0
41579 H 91.8462 72.9893 83.545 H 0.0 **** 0.0
41580 H 90.9361 73.1503 85.0889 H 0.0 **** 0.0
41581 H 90.972 70.7356 84.2844 H 0.0 **** 0.0
41582 H 92.8605 75.3714 84.3127 H 0.0 **** 0.0
41583 H 92.2987 75.1463 85.9937 H 0.0 **** 0.0
41584 H 94.3112 76.4792 85.9733 H 0.0 **** 0.0
41585 H 95.1663 75.3208 84.8488 H 0.0 **** 0.0
41586 H 94.1745 72.2414 88.7645 H 0.0 **** 0.0
41587 H 95.8072 71.8465 88.0659 H 0.0 **** 0.0
41588 H 95.0117 74.1198 89.9823 H 0.0 **** 0.0
41589 H 97.4803 73.9906 88.2073 H 0.0 **** 0.0
41590 H 97.1989 75.1998 89.5176 H 0.0 **** 0.0
41591 H 96.7197 75.9798 87.1553 H 0.0 **** 0.0
41592 H 95.4194 76.292 88.365 H 0.0 **** 0.0
41593 H 96.5503 72.3147 85.4935 H 0.0 **** 0.0
41594 H 102.001 71.8962 85.4845 H 0.0 **** 0.0
41595 H 103.776 72.504 83.963 H 0.0 **** 0.0
41596 H 99.622 65.9439 82.2377 H 0.0 **** 0.0
41597 H 109.316 72.6928 82.4901 H 0.0 **** 0.0
41598 H 107.478 73.0777 83.7655 H 0.0 **** 0.0
41599 H 106.095 74.0642 81.1804 H 0.0 **** 0.0
41600 H 107.329 75.9292 82.7184 H 0.0 **** 0.0
41601 H 107.212 75.3092 84.3896 H 0.0 **** 0.0
41602 H 109.623 74.6115 84.2636 H 0.0 **** 0.0
41603 H 109.259 76.4178 84.0427 H 0.0 **** 0.0
41604 H 109.667 76.3799 81.7057 H 0.0 **** 0.0
41605 H 108.584 74.8854 80.516 H 0.0 **** 0.0
41606 H 110.949 72.9214 80.7417 H 0.0 **** 0.0
41607 H 109.941 73.4163 79.3433 H 0.0 **** 0.0
41608 H 110.979 75.5937 79.2218 H 0.0 **** 0.0
41609 H 112.308 74.3174 79.2345 H 0.0 **** 0.0
41610 H 112.358 76.4852 80.9273 H 0.0 **** 0.0
41611 H 113.119 74.9448 81.3008 H 0.0 **** 0.0
41612 H 111.545 74.3207 82.7809 H 0.0 **** 0.0
41613 H 102.609 64.0633 78.2932 H 0.0 **** 0.0
41614 H 100.458 64.3183 79.0513 H 0.0 **** 0.0
41615 H 99.9253 63.644 81.6501 H 0.0 **** 0.0
41616 H 99.5256 62.6456 80.2493 H 0.0 **** 0.0
41617 H 100.712 61.2892 82.0554 H 0.0 **** 0.0
41618 H 102.069 62.4983 82.0332 H 0.0 **** 0.0
41619 H 101.491 60.3716 79.988 H 0.0 **** 0.0
41620 H 103.03 60.9835 80.6053 H 0.0 **** 0.0
41621 H 101.352 61.9072 78.2492 H 0.0 **** 0.0
41622 H 103.108 61.6858 78.4547 H 0.0 **** 0.0
41623 H 106.234 63.8408 80.8056 H 0.0 **** 0.0
41624 H 108.795 63.9614 80.8767 H 0.0 **** 0.0
41625 H 109.887 70.9534 80.6226 H 0.0 **** 0.0
41626 H 112.446 71.0255 80.6378 H 0.0 **** 0.0
41627 H 113.919 69.56 79.7579 H 0.0 **** 0.0
41628 H 114.751 68.9112 82.6618 H 0.0 **** 0.0
41629 H 114.944 71.6058 81.1487 H 0.0 **** 0.0
41630 H 115.779 71.2027 82.7178 H 0.0 **** 0.0
41631 H 113.443 72.4881 82.8271 H 0.0 **** 0.0
41632 H 114.011 71.3417 84.0326 H 0.0 **** 0.0
41633 H 111.524 71.1168 82.9754 H 0.0 **** 0.0
41634 H 112.443 69.6614 83.3916 H 0.0 **** 0.0
41635 H 95.6338 72.1425 91.0867 H 0.0 **** 0.0
41636 H 98.0762 71.2464 90.8122 H 0.0 **** 0.0
41637 H 98.2883 72.1232 89.3439 H 0.0 **** 0.0
41638 H 97.0401 70.8139 89.4658 H 0.0 **** 0.0
41639 H 96.3559 74.2775 92.0411 H 0.0 **** 0.0
41640 H 97.9626 73.9747 91.419 H 0.0 **** 0.0
41641 H 97.27 72.8921 92.6339 H 0.0 **** 0.0
41642 H 105.021 75.1387 82.6915 H 0.0 **** 0.0
41643 H 112.588 62.887 81.271 H 0.0 **** 0.0
41644 H 114.721 61.8613 82.2353 H 0.0 **** 0.0
41645 H 117.253 61.9334 82.4144 H 0.0 **** 0.0
41646 H 119.875 61.8548 82.0081 H 0.0 **** 0.0
41647 H 121.861 62.8779 81.2431 H 0.0 **** 0.0
41648 H 123.214 67.3457 79.6461 H 0.0 **** 0.0
41649 H 123.058 64.8543 79.982 H 0.0 **** 0.0
41650 H 116.656 70.4992 79.4664 H 0.0 **** 0.0
41651 H 119.006 71.2227 78.1028 H 0.0 **** 0.0
41652 H 119.228 72.0337 79.6101 H 0.0 **** 0.0
41653 H 120.915 72.8071 78.2936 H 0.0 **** 0.0
41654 H 121.199 71.283 77.4913 H 0.0 **** 0.0
41655 H 122.312 72.1558 80.1793 H 0.0 **** 0.0
41656 H 123.116 71.5232 78.8731 H 0.0 **** 0.0
41657 C 8.69807 17.7171 28.8776 C 0.0 **** 0.0
41658 C 9.09303 19.1285 29.415 C 0.0 **** 0.0
41659 C 7.91875 20.1201 29.3766 C 0.0 **** 0.0
41660 C 7.19516 19.9251 28.0427 C 0.0 **** 0.0
41661 C 6.68117 18.4485 27.9097 C 0.0 **** 0.0
41662 O 7.27911 17.6143 28.8709 O 0.0 **** 0.0
41663 C 8.115 20.4601 26.9058 C 0.0 **** 0.0
41664 C 8.71099 21.9066 27.1956 C 0.0 **** 0.0
41665 C 8.07396 22.5747 28.4221 C 0.0 **** 0.0
41666 C 8.3024 21.6612 29.6526 C 0.0 **** 0.0
41667 O 8.57743 22.7647 26.1102 O 0.0 **** 0.0
41668 C 9.0248 22.1929 24.8952 C 0.0 **** 0.0
41669 C 8.04177 21.1619 24.4164 C 0.0 **** 0.0
41670 C 7.34146 20.4647 25.6144 C 0.0 **** 0.0
41671 C 8.57051 20.2297 23.3781 C 0.0 **** 0.0
41672 C 9.92852 19.8441 23.3537 C 0.0 **** 0.0
41673 C 10.9357 21.04 23.6854 C 0.0 **** 0.0
41674 C 10.505 21.7083 24.9941 C 0.0 **** 0.0
41675 C 12.27 20.4085 23.8544 C 0.0 **** 0.0
41676 C 12.6754 19.7738 22.558 C 0.0 **** 0.0
41677 C 11.8209 18.532 22.2542 C 0.0 **** 0.0
41678 C 10.3924 19.0609 22.1273 C 0.0 **** 0.0
41679 C 9.3779 17.979 21.7068 C 0.0 **** 0.0
41680 C 7.99029 18.6651 21.4724 C 0.0 **** 0.0
41681 C 7.61992 19.5813 22.5817 C 0.0 **** 0.0
41682 O 12.2591 17.8929 21.0678 O 0.0 **** 0.0
41683 C 13.6546 17.6109 21.0834 C 0.0 **** 0.0
41684 C 14.4159 18.9375 21.0969 C 0.0 **** 0.0
41685 C 14.1846 19.7129 22.372 C 0.0 **** 0.0
41686 C 11.5733 22.754 25.4347 C 0.0 **** 0.0
41687 C 12.9404 22.1946 25.6963 C 0.0 **** 0.0
41688 C 13.3644 21.3303 24.4572 C 0.0 **** 0.0
41689 C 13.9847 23.2279 26.0963 C 0.0 **** 0.0
41690 C 13.7053 24.5788 26.0466 C 0.0 **** 0.0
41691 C 12.4395 25.1188 25.5189 C 0.0 **** 0.0
41692 C 11.3396 24.094 25.4746 C 0.0 **** 0.0
41693 C 14.7564 25.6025 26.4471 C 0.0 **** 0.0
41694 C 16.1461 25.1033 25.9724 C 0.0 **** 0.0
41695 C 16.3832 23.6408 26.3102 C 0.0 **** 0.0
41696 C 15.3477 22.746 26.4159 C 0.0 **** 0.0
41697 C 15.5867 21.3228 26.9558 C 0.0 **** 0.0
41698 C 17.0309 21.134 27.3908 C 0.0 **** 0.0
41699 C 17.9803 21.7137 26.3408 C 0.0 **** 0.0
41700 C 17.7992 23.172 26.1278 C 0.0 **** 0.0
41701 C 14.6118 21.1767 22.1795 C 0.0 **** 0.0
41702 C 14.029 22.1152 23.2772 C 0.0 **** 0.0
41703 C 15.8402 19.026 20.552 C 0.0 **** 0.0
41704 C 16.1745 20.542 20.3784 C 0.0 **** 0.0
41705 S 16.4318 21.2449 22.0896 S 0.0 **** 0.0
41706 C 17.3081 20.8279 19.391 C 0.0 **** 0.0
41707 C 17.263 19.9495 18.1623 C 0.0 **** 0.0
41708 C 17.2427 18.4766 18.6082 C 0.0 **** 0.0
41709 C 15.8724 18.2335 19.2762 C 0.0 **** 0.0
41710 C 17.3138 17.5461 17.3772 C 0.0 **** 0.0
41711 C 18.4463 17.923 16.4055 C 0.0 **** 0.0
41712 C 18.2866 19.396 15.9033 C 0.0 **** 0.0
41713 C 18.2992 20.355 17.1032 C 0.0 **** 0.0
41714 C 17.0377 19.5565 14.9346 C 0.0 **** 0.0
41715 C 17.0705 18.4776 13.857 C 0.0 **** 0.0
41716 C 18.2874 17.4837 13.8637 C 0.0 **** 0.0
41717 C 18.5394 16.8882 15.2445 C 0.0 **** 0.0
41718 C 15.5737 16.7515 19.6448 C 0.0 **** 0.0
41719 C 14.0818 16.5993 20.0043 C 0.0 **** 0.0
41720 C 17.4584 16.1251 17.9731 C 0.0 **** 0.0
41721 C 16.0417 15.7453 18.4928 C 0.0 **** 0.0
41722 C 17.8215 15.5694 15.5418 C 0.0 **** 0.0
41723 C 18.114 15.1704 16.9795 C 0.0 **** 0.0
41724 C 18.2274 16.4455 12.7135 C 0.0 **** 0.0
41725 C 17.56 15.1345 13.1558 C 0.0 **** 0.0
41726 C 18.096 14.54 14.5014 C 0.0 **** 0.0
41727 O 16.9263 19.0228 12.5527 O 0.0 **** 0.0
41728 C 17.9363 19.9631 12.27 C 0.0 **** 0.0
41729 C 17.7665 21.2468 13.1512 C 0.0 **** 0.0
41730 C 16.8003 20.9641 14.3304 C 0.0 **** 0.0
41731 C 17.3739 22.5004 12.3505 C 0.0 **** 0.0
41732 C 16.3466 22.1849 11.278 C 0.0 **** 0.0
41733 C 16.8987 21.2457 10.1676 C 0.0 **** 0.0
41734 C 17.8624 20.1666 10.7192 C 0.0 **** 0.0
41735 C 19.2567 20.2607 10.0489 C 0.0 **** 0.0
41736 C 19.732 21.6641 9.89085 C 0.0 **** 0.0
41737 C 18.7596 22.5875 9.15146 C 0.0 **** 0.0
41738 N 17.434 21.9863 8.98793 N 0.0 **** 0.0
41739 C 16.0205 14.2941 19.0534 C 0.0 **** 0.0
41740 C 16.5233 13.3295 17.9875 C 0.0 **** 0.0
41741 C 17.8939 13.6689 17.3625 C 0.0 **** 0.0
41742 O 16.5766 12.0611 18.5612 O 0.0 **** 0.0
41743 C 15.27 11.6312 18.7936 C 0.0 **** 0.0
41744 C 14.5263 12.5764 19.7847 C 0.0 **** 0.0
41745 O 14.7228 13.9609 19.4723 O 0.0 **** 0.0
41746 C 14.778 12.2932 21.2487 C 0.0 **** 0.0
41747 C 16.0735 11.4724 21.5334 C 0.0 **** 0.0
41748 C 15.9729 10.1242 20.8228 C 0.0 **** 0.0
41749 C 15.3465 10.2287 19.3914 C 0.0 **** 0.0
41750 C 17.4725 13.2298 14.8744 C 0.0 **** 0.0
41751 C 18.1312 12.7197 16.1606 C 0.0 **** 0.0
41752 C 17.5085 14.172 12.0015 C 0.0 **** 0.0
41753 C 16.8912 12.8399 12.4622 C 0.0 **** 0.0
41754 C 17.5456 12.2165 13.7095 C 0.0 **** 0.0
41755 C 18.9032 13.8876 11.4446 C 0.0 **** 0.0
41756 C 19.6341 15.162 10.9481 C 0.0 **** 0.0
41757 C 19.6326 16.1635 12.1339 C 0.0 **** 0.0
41758 O 16.776 11.9327 11.3753 O 0.0 **** 0.0
41759 C 18.0487 11.6034 10.8992 C 0.0 **** 0.0
41760 C 18.7681 12.8452 10.3334 C 0.0 **** 0.0
41761 C 21.075 14.8811 10.3756 C 0.0 **** 0.0
41762 C 21.0971 13.6182 9.49529 C 0.0 **** 0.0
41763 C 20.1684 12.4607 9.84676 C 0.0 **** 0.0
41764 C 22.5208 13.0129 9.33779 C 0.0 **** 0.0
41765 C 23.6003 14.0929 9.4339 C 0.0 **** 0.0
41766 C 23.6032 14.7789 10.8201 C 0.0 **** 0.0
41767 C 22.199 14.9064 11.4606 C 0.0 **** 0.0
41768 C 20.1129 11.3966 8.72479 C 0.0 **** 0.0
41769 C 19.3415 10.1838 9.27638 C 0.0 **** 0.0
41770 C 17.9085 10.5672 9.82272 C 0.0 **** 0.0
41771 C 22.495 12.1919 8.02872 C 0.0 **** 0.0
41772 C 21.5347 10.9558 8.35098 C 0.0 **** 0.0
41773 C 17.3037 19.6377 27.7833 C 0.0 **** 0.0
41774 C 17.6754 18.7115 26.5603 C 0.0 **** 0.0
41775 C 18.4578 19.6133 28.7988 C 0.0 **** 0.0
41776 O 17.0016 21.9612 15.3119 O 0.0 **** 0.0
41777 C 17.2222 9.26509 10.3177 C 0.0 **** 0.0
41778 C 17.1153 8.24284 9.14336 C 0.0 **** 0.0
41779 C 17.8639 8.61272 7.8579 C 0.0 **** 0.0
41780 C 19.2983 8.99888 8.20902 C 0.0 **** 0.0
41781 C 20.1626 9.34429 6.96096 C 0.0 **** 0.0
41782 C 20.1926 8.12257 6.02592 C 0.0 **** 0.0
41783 C 18.7604 7.72348 5.63814 C 0.0 **** 0.0
41784 C 17.8595 7.47391 6.86167 C 0.0 **** 0.0
41785 C 18.7954 6.48928 4.76585 C 0.0 **** 0.0
41786 C 19.7451 6.71375 3.55429 C 0.0 **** 0.0
41787 C 21.1667 6.98921 4.06693 C 0.0 **** 0.0
41788 C 21.1306 8.29495 4.87396 C 0.0 **** 0.0
41789 C 22.527 8.62435 5.45525 C 0.0 **** 0.0
41790 C 22.4476 9.94404 6.1609 C 0.0 **** 0.0
41791 C 21.5876 9.76568 7.42203 C 0.0 **** 0.0
41792 C 23.557 8.69971 4.32096 C 0.0 **** 0.0
41793 C 23.5855 7.46655 3.40926 C 0.0 **** 0.0
41794 C 22.2108 7.09128 2.90337 C 0.0 **** 0.0
41795 C 23.8596 11.688 7.56766 C 0.0 **** 0.0
41796 C 23.6874 10.8577 6.2606 C 0.0 **** 0.0
41797 C 24.9783 9.07711 4.82833 C 0.0 **** 0.0
41798 C 24.9826 10.2393 5.80745 C 0.0 **** 0.0
41799 C 26.3084 10.5011 6.55213 C 0.0 **** 0.0
41800 C 27.4909 9.79322 5.90626 C 0.0 **** 0.0
41801 C 27.2869 8.28368 5.78667 C 0.0 **** 0.0
41802 C 25.9101 7.97087 5.24652 C 0.0 **** 0.0
41803 O 25.5125 6.82159 5.32945 O 0.0 **** 0.0
41804 H 9.15545 16.8807 29.504 H 0.0 **** 0.0
41805 H 9.09981 17.5125 27.8709 H 0.0 **** 0.0
41806 H 9.57785 19.0762 30.4169 H 0.0 **** 0.0
41807 H 9.90743 19.5034 28.7972 H 0.0 **** 0.0
41808 H 7.17726 19.818 30.2029 H 0.0 **** 0.0
41809 H 6.27179 20.5357 28.013 H 0.0 **** 0.0
41810 H 6.8551 18.0129 26.8839 H 0.0 **** 0.0
41811 H 5.55248 18.4779 28.0838 H 0.0 **** 0.0
41812 H 8.94766 19.7248 26.7263 H 0.0 **** 0.0
41813 H 9.78202 21.7644 27.4716 H 0.0 **** 0.0
41814 H 6.94956 22.709 28.1975 H 0.0 **** 0.0
41815 H 8.5132 23.5707 28.5979 H 0.0 **** 0.0
41816 H 7.63356 22.0392 30.4333 H 0.0 **** 0.0
41817 H 9.2939 21.8062 30.0141 H 0.0 **** 0.0
41818 H 8.9893 23.0217 24.1644 H 0.0 **** 0.0
41819 H 7.2565 21.7317 23.9495 H 0.0 **** 0.0
41820 H 6.98713 19.4109 25.3518 H 0.0 **** 0.0
41821 H 6.45063 21.0738 25.8381 H 0.0 **** 0.0
41822 H 10.5699 20.8759 25.7568 H 0.0 **** 0.0
41823 H 9.66818 17.5482 20.732 H 0.0 **** 0.0
41824 H 9.34292 17.2154 22.5224 H 0.0 **** 0.0
41825 H 7.25638 17.807 21.5037 H 0.0 **** 0.0
41826 H 7.97472 19.1989 20.5167 H 0.0 **** 0.0
41827 H 6.58925 19.76 22.7496 H 0.0 **** 0.0
41828 H 12.7921 21.5172 26.545 H 0.0 **** 0.0
41829 H 12.6099 25.4021 24.4338 H 0.0 **** 0.0
41830 H 12.0478 26.0315 26.0484 H 0.0 **** 0.0
41831 H 10.4127 24.5561 25.3088 H 0.0 **** 0.0
41832 H 14.6118 26.5928 26.0429 H 0.0 **** 0.0
41833 H 14.7934 25.6783 27.5567 H 0.0 **** 0.0
41834 H 16.9349 25.6447 26.4913 H 0.0 **** 0.0
41835 H 16.2798 25.2689 24.8718 H 0.0 **** 0.0
41836 H 14.8996 21.1115 27.8754 H 0.0 **** 0.0
41837 H 15.2997 20.6199 26.1467 H 0.0 **** 0.0
41838 H 17.191 21.7883 28.2939 H 0.0 **** 0.0
41839 H 17.8287 21.2273 25.3763 H 0.0 **** 0.0
41840 H 19.1004 21.546 26.5862 H 0.0 **** 0.0
41841 H 18.1172 23.5063 25.123 H 0.0 **** 0.0
41842 H 18.4531 23.798 26.8225 H 0.0 **** 0.0
41843 H 14.8184 22.772 23.6439 H 0.0 **** 0.0
41844 H 17.3625 21.9347 19.2048 H 0.0 **** 0.0
41845 H 19.3211 20.3575 17.5706 H 0.0 **** 0.0
41846 H 13.4477 16.6381 19.1119 H 0.0 **** 0.0
41847 H 18.9275 19.5871 12.5433 H 0.0 **** 0.0
41848 H 18.7564 21.4231 13.6268 H 0.0 **** 0.0
41849 H 15.7211 21.0162 13.9667 H 0.0 **** 0.0
41850 H 16.9707 23.2576 13.0551 H 0.0 **** 0.0
41851 H 18.2756 22.9517 11.9701 H 0.0 **** 0.0
41852 H 16.0207 23.1541 10.8303 H 0.0 **** 0.0
41853 H 15.3754 21.7294 11.6115 H 0.0 **** 0.0
41854 H 16.0298 20.759 9.71383 H 0.0 **** 0.0
41855 H 17.4175 19.2033 10.3279 H 0.0 **** 0.0
41856 H 19.9944 19.7262 10.6202 H 0.0 **** 0.0
41857 H 19.2151 19.843 9.03772 H 0.0 **** 0.0
41858 H 20.6725 21.7037 9.31342 H 0.0 **** 0.0
41859 H 19.9817 22.1162 10.8931 H 0.0 **** 0.0
41860 H 19.1874 22.8639 8.20185 H 0.0 **** 0.0
41861 H 18.6675 23.5205 9.78421 H 0.0 **** 0.0
41862 H 17.5179 21.3144 8.2032 H 0.0 **** 0.0
41863 H 14.7003 11.6183 17.8397 H 0.0 **** 0.0
41864 H 13.4211 12.4331 19.5491 H 0.0 **** 0.0
41865 H 14.8182 13.1734 21.8792 H 0.0 **** 0.0
41866 H 13.9623 11.6274 21.5143 H 0.0 **** 0.0
41867 H 16.166 11.2732 22.606 H 0.0 **** 0.0
41868 H 16.9736 12.0225 21.1701 H 0.0 **** 0.0
41869 H 15.257 9.596 21.4987 H 0.0 **** 0.0
41870 H 16.9976 9.63587 20.9171 H 0.0 **** 0.0
41871 H 14.3174 9.78082 19.4682 H 0.0 **** 0.0
41872 H 15.9186 9.5888 18.7081 H 0.0 **** 0.0
41873 H 17.7992 11.7023 16.4114 H 0.0 **** 0.0
41874 H 17.0904 11.3111 14.0218 H 0.0 **** 0.0
41875 H 20.1621 17.1175 11.8867 H 0.0 **** 0.0
41876 H 21.2727 15.7423 9.64675 H 0.0 **** 0.0
41877 H 20.8159 13.976 8.46634 H 0.0 **** 0.0
41878 H 22.7163 12.372 10.2476 H 0.0 **** 0.0
41879 H 23.5568 14.8628 8.63372 H 0.0 **** 0.0
41880 H 24.6248 13.6252 9.33536 H 0.0 **** 0.0
41881 H 24.0936 15.7857 10.7182 H 0.0 **** 0.0
41882 H 24.2548 14.1794 11.4968 H 0.0 **** 0.0
41883 H 22.1757 15.8493 12.0137 H 0.0 **** 0.0
41884 H 22.0225 14.073 12.2269 H 0.0 **** 0.0
41885 H 16.4238 19.2392 28.3143 H 0.0 **** 0.0
41886 H 17.8735 17.6919 26.9241 H 0.0 **** 0.0
41887 H 18.5901 19.03 26.0192 H 0.0 **** 0.0
41888 H 16.7843 18.6912 25.8354 H 0.0 **** 0.0
41889 H 18.1876 20.1658 29.7127 H 0.0 **** 0.0
41890 H 19.4576 20.0093 28.4756 H 0.0 **** 0.0
41891 H 18.6403 18.5794 29.0467 H 0.0 **** 0.0
41892 H 16.193 21.8966 15.9376 H 0.0 **** 0.0
41893 H 16.2218 9.48481 10.725 H 0.0 **** 0.0
41894 H 16.0028 8.04184 8.90914 H 0.0 **** 0.0
41895 H 16.8231 7.20319 6.5957 H 0.0 **** 0.0
41896 H 17.8084 6.23175 4.30681 H 0.0 **** 0.0
41897 H 19.6869 5.82337 2.89996 H 0.0 **** 0.0
41898 H 24.2685 7.63278 2.56667 H 0.0 **** 0.0
41899 H 21.8268 7.83506 2.12277 H 0.0 **** 0.0
41900 H 24.5642 12.5231 7.31371 H 0.0 **** 0.0
41901 H 26.535 11.5695 6.57001 H 0.0 **** 0.0
41902 H 26.2949 10.1981 7.61739 H 0.0 **** 0.0
41903 H 28.3871 9.9782 6.49223 H 0.0 **** 0.0
41904 H 27.6873 10.2594 4.92215 H 0.0 **** 0.0
41905 H 27.4198 7.80998 6.82557 H 0.0 **** 0.0
41906 H 28.0154 7.88141 5.0022 H 0.0 **** 0.0
41907 C 20.1497 24.3653 38.7414 C 0.0 **** 0.0
41908 C 20.3108 23.3843 39.9574 C 0.0 **** 0.0
41909 C 18.9713 22.6526 40.1854 C 0.0 **** 0.0
41910 C 17.8273 23.72 40.2756 C 0.0 **** 0.0
41911 C 17.9029 24.7241 39.111 C 0.0 **** 0.0
41912 O 18.866 24.2992 38.1643 O 0.0 **** 0.0
41913 C 17.652 24.4436 41.6701 C 0.0 **** 0.0
41914 C 17.9751 23.5273 42.8862 C 0.0 **** 0.0
41915 C 17.8892 22.0552 42.5009 C 0.0 **** 0.0
41916 C 19.0331 21.776 41.474 C 0.0 **** 0.0
41917 O 17.1652 23.7551 44.0818 O 0.0 **** 0.0
41918 C 16.871 25.1034 44.2814 C 0.0 **** 0.0
41919 C 15.9028 25.5806 43.1859 C 0.0 **** 0.0
41920 C 16.2651 25.0844 41.7404 C 0.0 **** 0.0
41921 C 15.7489 27.1084 43.247 C 0.0 **** 0.0
41922 C 16.9737 27.8776 43.3901 C 0.0 **** 0.0
41923 C 17.587 27.494 44.738 C 0.0 **** 0.0
41924 C 18.0318 26.0345 44.6382 C 0.0 **** 0.0
41925 C 18.626 28.5066 45.2828 C 0.0 **** 0.0
41926 C 19.183 29.3934 44.2138 C 0.0 **** 0.0
41927 C 18.0573 30.1733 43.5337 C 0.0 **** 0.0
41928 C 16.7933 29.4073 43.2285 C 0.0 **** 0.0
41929 C 15.5784 29.9703 43.9549 C 0.0 **** 0.0
41930 C 14.326 29.2034 43.4808 C 0.0 **** 0.0
41931 C 14.4721 27.7189 43.2806 C 0.0 **** 0.0
41932 O 18.5891 30.7693 42.3798 O 0.0 **** 0.0
41933 C 19.4154 31.8199 42.7922 C 0.0 **** 0.0
41934 C 20.6582 31.2402 43.5187 C 0.0 **** 0.0
41935 C 20.2282 30.3875 44.7084 C 0.0 **** 0.0
41936 C 18.8579 25.7332 45.9008 C 0.0 **** 0.0
41937 C 20.121 26.4933 45.9193 C 0.0 **** 0.0
41938 C 19.6624 27.9231 46.3362 C 0.0 **** 0.0
41939 C 21.1269 25.8414 46.8657 C 0.0 **** 0.0
41940 C 20.6563 25.4009 48.0396 C 0.0 **** 0.0
41941 C 19.161 25.2194 48.2702 C 0.0 **** 0.0
41942 C 18.4311 25.0367 46.9585 C 0.0 **** 0.0
41943 C 21.6547 24.8132 49.0325 C 0.0 **** 0.0
41944 C 22.6519 23.9117 48.3176 C 0.0 **** 0.0
41945 C 23.3001 24.7022 47.1965 C 0.0 **** 0.0
41946 C 22.5716 25.5947 46.5087 C 0.0 **** 0.0
41947 C 23.2414 26.3293 45.4073 C 0.0 **** 0.0
41948 C 24.0437 25.3693 44.5744 C 0.0 **** 0.0
41949 C 25.2154 25.0164 45.5006 C 0.0 **** 0.0
41950 C 24.7457 24.378 46.8265 C 0.0 **** 0.0
41951 C 21.3195 29.6775 45.4494 C 0.0 **** 0.0
41952 C 20.7078 29.0219 46.6785 C 0.0 **** 0.0
41953 C 21.6767 32.3558 43.8938 C 0.0 **** 0.0
41954 C 22.9449 31.689 44.41 C 0.0 **** 0.0
41955 S 22.6525 30.8595 46.0182 S 0.0 **** 0.0
41956 C 24.1071 32.6621 44.4984 C 0.0 **** 0.0
41957 C 24.3419 33.3597 43.172 C 0.0 **** 0.0
41958 C 23.0619 34.1875 42.8026 C 0.0 **** 0.0
41959 C 21.9627 33.1925 42.6161 C 0.0 **** 0.0
41960 C 23.3657 34.9223 41.4383 C 0.0 **** 0.0
41961 C 24.5523 35.8638 41.7546 C 0.0 **** 0.0
41962 C 25.8175 34.9941 41.953 C 0.0 **** 0.0
41963 C 25.651 34.1841 43.2728 C 0.0 **** 0.0
41964 C 27.0896 35.8619 42.0788 C 0.0 **** 0.0
41965 C 27.26 37.0805 41.1415 C 0.0 **** 0.0
41966 C 25.9038 37.8622 41.0145 C 0.0 **** 0.0
41967 C 24.7913 36.8624 40.5933 C 0.0 **** 0.0
41968 C 20.7025 33.8046 42.0184 C 0.0 **** 0.0
41969 C 19.8159 32.6567 41.5819 C 0.0 **** 0.0
41970 C 22.1338 35.6933 41.0517 C 0.0 **** 0.0
41971 C 21.0313 34.656 40.7403 C 0.0 **** 0.0
41972 C 23.4834 37.5459 40.1489 C 0.0 **** 0.0
41973 C 22.3573 36.568 39.8132 C 0.0 **** 0.0
41974 C 25.7864 39.1767 40.2074 C 0.0 **** 0.0
41975 C 25.2022 38.8342 38.8355 C 0.0 **** 0.0
41976 C 23.708 38.5598 39.0251 C 0.0 **** 0.0
41977 O 28.2515 37.8747 41.7735 O 0.0 **** 0.0
41978 C 29.5522 37.3029 41.5664 C 0.0 **** 0.0
41979 C 29.6871 35.8289 42.0037 C 0.0 **** 0.0
41980 C 28.3584 35.0081 41.9178 C 0.0 **** 0.0
41981 C 30.4493 35.6807 43.3461 C 0.0 **** 0.0
41982 C 31.8932 36.1549 43.1273 C 0.0 **** 0.0
41983 C 31.9172 37.6529 42.8453 C 0.0 **** 0.0
41984 C 30.6053 38.309 42.2608 C 0.0 **** 0.0
41985 C 31.0137 39.4685 41.3325 C 0.0 **** 0.0
41986 C 32.1831 40.2335 41.87 C 0.0 **** 0.0
41987 C 33.427 39.3535 41.8409 C 0.0 **** 0.0
41988 N 33.1153 37.9484 42.0344 N 0.0 **** 0.0
41989 C 19.7475 35.4093 40.3365 C 0.0 **** 0.0
41990 C 19.9546 36.3815 39.1423 C 0.0 **** 0.0
41991 C 21.1657 37.3249 39.2417 C 0.0 **** 0.0
41992 O 18.7625 37.0674 38.8221 O 0.0 **** 0.0
41993 C 18.1948 37.6888 39.9847 C 0.0 **** 0.0
41994 C 18.034 36.6751 41.215 C 0.0 **** 0.0
41995 O 19.2656 36.0399 41.4879 O 0.0 **** 0.0
41996 C 16.8921 35.6204 41.0362 C 0.0 **** 0.0
41997 C 15.7087 36.1236 40.1288 C 0.0 **** 0.0
41998 C 15.5501 37.6135 40.1529 C 0.0 **** 0.0
41999 C 16.8073 38.3681 39.6444 C 0.0 **** 0.0
42000 C 23.0343 38.1188 37.7179 C 0.0 **** 0.0
42001 C 21.531 37.9439 37.8674 C 0.0 **** 0.0
42002 C 25.2367 40.0423 37.9118 C 0.0 **** 0.0
42003 C 24.7831 39.5525 36.5274 C 0.0 **** 0.0
42004 C 23.3307 39.1299 36.6069 C 0.0 **** 0.0
42005 C 26.6237 40.6617 37.7952 C 0.0 **** 0.0
42006 C 26.8706 41.2377 39.1771 C 0.0 **** 0.0
42007 C 27.0422 40.0823 40.1908 C 0.0 **** 0.0
42008 O 25.15 40.3392 35.3849 O 0.0 **** 0.0
42009 C 25.3442 41.6557 35.7706 C 0.0 **** 0.0
42010 C 26.5618 41.7354 36.6916 C 0.0 **** 0.0
42011 C 27.9502 42.3167 39.255 C 0.0 **** 0.0
42012 C 27.5534 43.5474 38.3651 C 0.0 **** 0.0
42013 C 26.734 43.1977 37.113 C 0.0 **** 0.0
42014 C 28.7276 44.5064 38.0215 C 0.0 **** 0.0
42015 C 29.7079 44.521 39.2037 C 0.0 **** 0.0
42016 C 30.2512 43.1074 39.5638 C 0.0 **** 0.0
42017 C 29.3984 41.9608 39.0365 C 0.0 **** 0.0
42018 C 27.0779 44.0326 35.8762 C 0.0 **** 0.0
42019 C 25.9747 43.9446 34.8486 C 0.0 **** 0.0
42020 C 25.5045 42.4973 34.5423 C 0.0 **** 0.0
42021 C 28.0879 45.8182 37.5783 C 0.0 **** 0.0
42022 C 27.3331 45.4874 36.2517 C 0.0 **** 0.0
42023 C 24.4475 25.9017 43.2064 C 0.0 **** 0.0
42024 C 25.4346 27.0557 43.3152 C 0.0 **** 0.0
42025 C 25.1138 24.7879 42.3993 C 0.0 **** 0.0
42026 O 28.2918 34.3599 40.6794 O 0.0 **** 0.0
42027 C 24.1355 42.5967 33.8085 C 0.0 **** 0.0
42028 C 24.1707 43.5394 32.5725 C 0.0 **** 0.0
42029 C 24.7758 44.9227 32.9221 C 0.0 **** 0.0
42030 C 26.1613 44.796 33.5952 C 0.0 **** 0.0
42031 C 26.8809 46.1457 33.821 C 0.0 **** 0.0
42032 C 26.3829 47.3425 33.0482 C 0.0 **** 0.0
42033 C 25.9464 46.9422 31.63 C 0.0 **** 0.0
42034 C 24.7853 45.9295 31.7153 C 0.0 **** 0.0
42035 C 25.6526 48.1449 30.6674 C 0.0 **** 0.0
42036 C 26.8024 49.1933 30.6884 C 0.0 **** 0.0
42037 C 26.9727 49.6867 32.1363 C 0.0 **** 0.0
42038 C 27.3969 48.4908 33.0181 C 0.0 **** 0.0
42039 C 27.7053 48.9304 34.4474 C 0.0 **** 0.0
42040 C 28.13 47.7084 35.2813 C 0.0 **** 0.0
42041 C 27.0162 46.606 35.2697 C 0.0 **** 0.0
42042 C 28.8028 49.9772 34.3643 C 0.0 **** 0.0
42043 C 28.1546 51.21 33.6696 C 0.0 **** 0.0
42044 C 28.0088 50.8206 32.1992 C 0.0 **** 0.0
42045 C 29.0775 46.9473 37.4494 C 0.0 **** 0.0
42046 C 28.5129 48.1639 36.7115 C 0.0 **** 0.0
42047 C 29.3561 50.4126 35.7212 C 0.0 **** 0.0
42048 C 29.668 49.2244 36.6011 C 0.0 **** 0.0
42049 C 30.1696 49.6238 37.9838 C 0.0 **** 0.0
42050 C 30.7758 51.035 38.0477 C 0.0 **** 0.0
42051 C 31.5278 51.48 36.7663 C 0.0 **** 0.0
42052 C 30.6606 51.2057 35.5566 C 0.0 **** 0.0
42053 O 31.2011 51.3307 34.4648 O 0.0 **** 0.0
42054 H 20.8216 24.0818 37.9742 H 0.0 **** 0.0
42055 H 20.3616 25.4282 39.0509 H 0.0 **** 0.0
42056 H 21.1239 22.6163 39.7713 H 0.0 **** 0.0
42057 H 20.6096 23.998 40.8303 H 0.0 **** 0.0
42058 H 18.8964 22.0441 39.2961 H 0.0 **** 0.0
42059 H 16.9113 23.1223 40.1383 H 0.0 **** 0.0
42060 H 18.1473 25.7398 39.4964 H 0.0 **** 0.0
42061 H 16.888 24.7758 38.6836 H 0.0 **** 0.0
42062 H 18.4233 25.2155 41.7342 H 0.0 **** 0.0
42063 H 19.0619 23.7651 43.1388 H 0.0 **** 0.0
42064 H 16.8889 21.8554 42.1659 H 0.0 **** 0.0
42065 H 18.1545 21.5043 43.4208 H 0.0 **** 0.0
42066 H 18.9514 20.7622 41.1999 H 0.0 **** 0.0
42067 H 19.9732 21.8871 42.0333 H 0.0 **** 0.0
42068 H 16.2445 25.1248 45.1908 H 0.0 **** 0.0
42069 H 14.9302 25.159 43.4467 H 0.0 **** 0.0
42070 H 16.2543 25.9847 41.007 H 0.0 **** 0.0
42071 H 15.4384 24.3896 41.4005 H 0.0 **** 0.0
42072 H 18.6823 26.0031 43.755 H 0.0 **** 0.0
42073 H 15.6096 29.9194 45.0727 H 0.0 **** 0.0
42074 H 15.4762 31.026 43.6693 H 0.0 **** 0.0
42075 H 14.0255 29.6239 42.4546 H 0.0 **** 0.0
42076 H 13.4676 29.335 44.1842 H 0.0 **** 0.0
42077 H 13.6047 27.1312 43.0203 H 0.0 **** 0.0
42078 H 20.5455 26.5038 44.8919 H 0.0 **** 0.0
42079 H 18.7947 26.099 48.8223 H 0.0 **** 0.0
42080 H 18.9891 24.363 48.9667 H 0.0 **** 0.0
42081 H 17.5433 24.4023 46.89 H 0.0 **** 0.0
42082 H 22.2232 25.6335 49.5205 H 0.0 **** 0.0
42083 H 21.1646 24.1565 49.7888 H 0.0 **** 0.0
42084 H 22.1363 23.0209 47.8491 H 0.0 **** 0.0
42085 H 23.4074 23.4819 48.9951 H 0.0 **** 0.0
42086 H 22.6206 26.9368 44.7272 H 0.0 **** 0.0
42087 H 23.9074 27.0443 45.919 H 0.0 **** 0.0
42088 H 23.3616 24.4503 44.3831 H 0.0 **** 0.0
42089 H 25.86 25.9127 45.7079 H 0.0 **** 0.0
42090 H 25.7788 24.2882 44.9952 H 0.0 **** 0.0
42091 H 25.386 24.7345 47.666 H 0.0 **** 0.0
42092 H 24.9011 23.2791 46.7237 H 0.0 **** 0.0
42093 H 21.4887 28.6687 47.4291 H 0.0 **** 0.0
42094 H 25.0009 32.138 44.8274 H 0.0 **** 0.0
42095 H 26.4814 33.5628 43.501 H 0.0 **** 0.0
42096 H 18.9054 33.0611 41.0464 H 0.0 **** 0.0
42097 H 29.8164 37.3531 40.4662 H 0.0 **** 0.0
42098 H 30.3681 35.4325 41.2155 H 0.0 **** 0.0
42099 H 28.3864 34.2199 42.6776 H 0.0 **** 0.0
42100 H 29.9268 36.2945 44.1136 H 0.0 **** 0.0
42101 H 30.4855 34.6479 43.6717 H 0.0 **** 0.0
42102 H 32.4334 35.5484 42.3672 H 0.0 **** 0.0
42103 H 32.4989 36.0088 43.9735 H 0.0 **** 0.0
42104 H 32.0915 38.1638 43.8356 H 0.0 **** 0.0
42105 H 30.0334 38.6909 43.1747 H 0.0 **** 0.0
42106 H 31.2796 39.2209 40.2842 H 0.0 **** 0.0
42107 H 30.1864 40.1985 41.4105 H 0.0 **** 0.0
42108 H 31.9586 40.619 42.901 H 0.0 **** 0.0
42109 H 32.3523 41.1873 41.2361 H 0.0 **** 0.0
42110 H 34.163 39.6682 42.6341 H 0.0 **** 0.0
42111 H 33.9272 39.5476 40.858 H 0.0 **** 0.0
42112 H 32.9036 37.5045 41.1327 H 0.0 **** 0.0
42113 H 18.8904 38.5083 40.3012 H 0.0 **** 0.0
42114 H 17.7922 37.2981 42.1145 H 0.0 **** 0.0
42115 H 17.3214 34.7751 40.4936 H 0.0 **** 0.0
42116 H 16.5842 35.3158 42.0288 H 0.0 **** 0.0
42117 H 14.8038 35.6162 40.5278 H 0.0 **** 0.0
42118 H 15.8314 35.7753 39.0625 H 0.0 **** 0.0
42119 H 15.3062 37.9352 41.1803 H 0.0 **** 0.0
42120 H 14.7575 37.8694 39.4152 H 0.0 **** 0.0
42121 H 16.7527 39.3942 40.1016 H 0.0 **** 0.0
42122 H 16.719 38.5817 38.5476 H 0.0 **** 0.0
42123 H 21.1935 37.2994 37.0077 H 0.0 **** 0.0
42124 H 23.0535 38.6809 35.6623 H 0.0 **** 0.0
42125 H 27.1591 40.4436 41.2168 H 0.0 **** 0.0
42126 H 27.9441 42.641 40.3072 H 0.0 **** 0.0
42127 H 26.8471 44.0559 39.052 H 0.0 **** 0.0
42128 H 29.3185 44.0617 37.1449 H 0.0 **** 0.0
42129 H 29.1454 44.9878 40.0842 H 0.0 **** 0.0
42130 H 30.6127 45.1572 38.954 H 0.0 **** 0.0
42131 H 30.4244 42.9913 40.6714 H 0.0 **** 0.0
42132 H 31.2475 43.0146 39.0619 H 0.0 **** 0.0
42133 H 29.6539 41.0348 39.5618 H 0.0 **** 0.0
42134 H 29.644 41.7563 37.9492 H 0.0 **** 0.0
42135 H 23.571 26.2625 42.6557 H 0.0 **** 0.0
42136 H 25.7487 27.4984 42.3622 H 0.0 **** 0.0
42137 H 26.451 26.6937 43.6682 H 0.0 **** 0.0
42138 H 25.0001 27.8727 43.9754 H 0.0 **** 0.0
42139 H 24.3758 24.0194 42.1966 H 0.0 **** 0.0
42140 H 25.9617 24.3032 42.8745 H 0.0 **** 0.0
42141 H 25.4596 25.1865 41.4353 H 0.0 **** 0.0
42142 H 28.7765 33.4989 40.656 H 0.0 **** 0.0
42143 H 23.7627 41.6123 33.5192 H 0.0 **** 0.0
42144 H 23.2089 43.6282 32.0073 H 0.0 **** 0.0
42145 H 23.844 46.4863 31.7732 H 0.0 **** 0.0
42146 H 25.6561 47.6842 29.6405 H 0.0 **** 0.0
42147 H 26.6109 50.044 30.0115 H 0.0 **** 0.0
42148 H 28.8212 52.1118 33.7206 H 0.0 **** 0.0
42149 H 27.5883 51.6952 31.6173 H 0.0 **** 0.0
42150 H 29.4563 47.1665 38.4592 H 0.0 **** 0.0
42151 H 29.3314 49.6505 38.7164 H 0.0 **** 0.0
42152 H 31.0788 48.9924 38.3085 H 0.0 **** 0.0
42153 H 31.3926 51.1167 38.9833 H 0.0 **** 0.0
42154 H 29.92 51.7579 38.1154 H 0.0 **** 0.0
42155 H 32.4547 50.8469 36.6299 H 0.0 **** 0.0
42156 H 31.8033 52.5235 36.7973 H 0.0 **** 0.0
42157 C 0.0210712 35.7674 46.2395 C 0.0 **** 0.0
42158 C 0.166307 34.9998 44.8925 C 0.0 **** 0.0
42159 C 1.63283 34.6513 44.6492 C 0.0 **** 0.0
42160 C 2.53602 35.9346 44.744 C 0.0 **** 0.0
42161 C 1.91309 36.9615 45.6982 C 0.0 **** 0.0
42162 O 1.23946 36.2615 46.7219 O 0.0 **** 0.0
42163 C 2.76582 36.5565 43.3626 C 0.0 **** 0.0
42164 C 3.52958 35.5556 42.4336 C 0.0 **** 0.0
42165 C 3.30755 34.0483 42.9189 C 0.0 **** 0.0
42166 C 1.83718 33.8564 43.3876 C 0.0 **** 0.0
42167 O 4.94155 35.7419 42.5408 O 0.0 **** 0.0
42168 C 5.35698 36.9602 41.9242 C 0.0 **** 0.0
42169 C 4.41112 38.1738 42.1571 C 0.0 **** 0.0
42170 C 3.55414 37.9229 43.4181 C 0.0 **** 0.0
42171 C 3.71551 38.6911 40.9039 C 0.0 **** 0.0
42172 C 4.60254 38.9459 39.7887 C 0.0 **** 0.0
42173 C 5.73142 37.9215 39.4941 C 0.0 **** 0.0
42174 C 5.60122 36.6857 40.3898 C 0.0 **** 0.0
42175 C 5.619 37.4504 38.0275 C 0.0 **** 0.0
42176 C 5.39564 38.5742 36.9948 C 0.0 **** 0.0
42177 C 4.96471 39.9888 37.4324 C 0.0 **** 0.0
42178 C 3.98471 39.7988 38.6349 C 0.0 **** 0.0
42179 C 2.59268 39.256 38.2891 C 0.0 **** 0.0
42180 C 1.69772 39.3714 39.5521 C 0.0 **** 0.0
42181 C 2.32007 38.7828 40.7564 C 0.0 **** 0.0
42182 O 4.36351 40.661 36.3725 O 0.0 **** 0.0
42183 C 5.23945 40.7839 35.3288 C 0.0 **** 0.0
42184 C 5.40277 39.4142 34.6181 C 0.0 **** 0.0
42185 C 5.98266 38.3824 35.5845 C 0.0 **** 0.0
42186 C 6.79927 35.8385 40.0542 C 0.0 **** 0.0
42187 C 6.71955 35.1554 38.6517 C 0.0 **** 0.0
42188 C 6.61526 36.3524 37.6465 C 0.0 **** 0.0
42189 C 7.86275 34.1482 38.4634 C 0.0 **** 0.0
42190 C 9.00443 34.2368 39.1967 C 0.0 **** 0.0
42191 C 9.23841 35.2957 40.2296 C 0.0 **** 0.0
42192 C 7.97603 35.9138 40.7256 C 0.0 **** 0.0
42193 C 10.1979 33.3745 38.885 C 0.0 **** 0.0
42194 C 9.75773 31.9653 38.6824 C 0.0 **** 0.0
42195 C 8.68608 31.9051 37.6306 C 0.0 **** 0.0
42196 C 7.7013 32.8326 37.6395 C 0.0 **** 0.0
42197 C 6.44925 32.6784 36.6904 C 0.0 **** 0.0
42198 C 6.30815 31.2463 36.1196 C 0.0 **** 0.0
42199 C 7.70074 30.7957 35.5691 C 0.0 **** 0.0
42200 C 8.73571 30.7398 36.7197 C 0.0 **** 0.0
42201 C 5.65367 36.9301 35.2795 C 0.0 **** 0.0
42202 C 6.50793 35.9525 36.1661 C 0.0 **** 0.0
42203 C 4.13008 38.9003 33.9984 C 0.0 **** 0.0
42204 C 4.41459 37.7195 33.0587 C 0.0 **** 0.0
42205 S 5.73633 36.5699 33.5065 S 0.0 **** 0.0
42206 C 3.09261 36.9876 32.6692 C 0.0 **** 0.0
42207 C 2.23379 38.0106 31.912 C 0.0 **** 0.0
42208 C 2.06062 39.3802 32.6351 C 0.0 **** 0.0
42209 C 3.42652 39.9414 33.1256 C 0.0 **** 0.0
42210 C 1.45374 40.362 31.6352 C 0.0 **** 0.0
42211 C 0.0908778 39.8445 31.1761 C 0.0 **** 0.0
42212 C 0.11997 38.4266 30.6423 C 0.0 **** 0.0
42213 C 0.839807 37.4689 31.5342 C 0.0 **** 0.0
42214 C 0.621818 38.3243 29.2087 C 0.0 **** 0.0
42215 C 0.0846882 39.3228 28.182 C 0.0 **** 0.0
42216 C -0.115152 40.7049 28.746 C 0.0 **** 0.0
42217 C -0.610248 40.8028 30.1698 C 0.0 **** 0.0
42218 C 3.24021 41.2881 33.853 C 0.0 **** 0.0
42219 C 4.58796 41.8096 34.3319 C 0.0 **** 0.0
42220 C 1.20445 41.7021 32.3965 C 0.0 **** 0.0
42221 C 2.47273 42.3143 33.0343 C 0.0 **** 0.0
42222 C -0.667205 42.236 30.6854 C 0.0 **** 0.0
42223 C 0.550814 42.7642 31.4474 C 0.0 **** 0.0
42224 C -0.885709 41.6495 27.7615 C 0.0 **** 0.0
42225 C -1.68169 42.7787 28.4232 C 0.0 **** 0.0
42226 C -0.903488 43.2942 29.5984 C 0.0 **** 0.0
42227 O 0.989625 39.3313 27.1147 O 0.0 **** 0.0
42228 C 0.939884 38.1463 26.3141 C 0.0 **** 0.0
42229 C 0.290343 36.9411 27.0537 C 0.0 **** 0.0
42230 C 0.648083 36.9038 28.5387 C 0.0 **** 0.0
42231 C 0.557287 35.5577 26.3363 C 0.0 **** 0.0
42232 C 0.980608 35.7418 24.8689 C 0.0 **** 0.0
42233 C 2.31805 36.5736 24.8106 C 0.0 **** 0.0
42234 C 2.36275 37.7421 25.8816 C 0.0 **** 0.0
42235 C 3.14864 38.9216 25.3033 C 0.0 **** 0.0
42236 C 4.33261 38.3964 24.5319 C 0.0 **** 0.0
42237 C 3.78227 37.7424 23.2288 C 0.0 **** 0.0
42238 N 2.45972 37.1204 23.4426 N 0.0 **** 0.0
42239 C 2.03886 43.5639 33.8768 C 0.0 **** 0.0
42240 C 1.31695 44.6222 33.0436 C 0.0 **** 0.0
42241 C 0.137805 44.0412 32.256 C 0.0 **** 0.0
42242 O 0.810159 45.6451 33.8977 O 0.0 **** 0.0
42243 C 1.90286 46.2545 34.5529 C 0.0 **** 0.0
42244 C 2.73044 45.2204 35.3107 C 0.0 **** 0.0
42245 O 3.16884 44.1517 34.4673 O 0.0 **** 0.0
42246 C 1.92579 44.7088 36.5662 C 0.0 **** 0.0
42247 C 1.59963 45.8394 37.5354 C 0.0 **** 0.0
42248 C 1.87032 47.2374 36.9478 C 0.0 **** 0.0
42249 C 1.38904 47.3739 35.4939 C 0.0 **** 0.0
42250 C -1.47695 44.557 30.295 C 0.0 **** 0.0
42251 C -0.492008 45.1149 31.3235 C 0.0 **** 0.0
42252 C -1.81657 43.8824 27.4168 C 0.0 **** 0.0
42253 C -2.36389 45.2098 27.926 C 0.0 **** 0.0
42254 C -1.68051 45.6382 29.2686 C 0.0 **** 0.0
42255 C -2.52738 43.4573 26.1472 C 0.0 **** 0.0
42256 C -1.89213 42.2157 25.5413 C 0.0 **** 0.0
42257 C -1.62909 41.0949 26.5625 C 0.0 **** 0.0
42258 O -2.00052 46.1904 26.9526 O 0.0 **** 0.0
42259 C -2.76771 45.8874 25.771 C 0.0 **** 0.0
42260 C -2.28669 44.5647 25.1345 C 0.0 **** 0.0
42261 C -2.64739 41.7406 24.2953 C 0.0 **** 0.0
42262 C -2.89153 42.8914 23.2832 C 0.0 **** 0.0
42263 C -3.1244 44.2572 23.894 C 0.0 **** 0.0
42264 C -4.14046 42.7324 22.3494 C 0.0 **** 0.0
42265 C -4.46853 41.2698 22.1357 C 0.0 **** 0.0
42266 C -4.62326 40.5377 23.437 C 0.0 **** 0.0
42267 C -3.97023 41.1246 24.6768 C 0.0 **** 0.0
42268 C -2.96832 45.3227 22.7821 C 0.0 **** 0.0
42269 C -3.22712 46.7188 23.3285 C 0.0 **** 0.0
42270 C -2.55353 47.0371 24.7275 C 0.0 **** 0.0
42271 C -3.89536 43.6665 21.1349 C 0.0 **** 0.0
42272 C -3.98622 45.0948 21.6517 C 0.0 **** 0.0
42273 C 5.12718 31.0889 35.0534 C 0.0 **** 0.0
42274 C 5.17786 31.9926 33.7867 C 0.0 **** 0.0
42275 C 4.93107 29.6082 34.6133 C 0.0 **** 0.0
42276 O -0.252564 36.0992 29.2538 O 0.0 **** 0.0
42277 C -3.02171 48.3986 25.2271 C 0.0 **** 0.0
42278 C -2.56627 49.4571 24.2092 C 0.0 **** 0.0
42279 C -3.30462 49.0984 22.8871 C 0.0 **** 0.0
42280 C -2.92246 47.7698 22.2892 C 0.0 **** 0.0
42281 C -3.88648 47.5805 21.0917 C 0.0 **** 0.0
42282 C -3.58932 48.5731 19.9777 C 0.0 **** 0.0
42283 C -3.77642 49.9461 20.5835 C 0.0 **** 0.0
42284 C -2.88031 50.1204 21.823 C 0.0 **** 0.0
42285 C -3.59158 51.0287 19.4946 C 0.0 **** 0.0
42286 C -4.55986 50.8026 18.3394 C 0.0 **** 0.0
42287 C -4.46355 49.4164 17.7134 C 0.0 **** 0.0
42288 C -4.61425 48.3863 18.8262 C 0.0 **** 0.0
42289 C -4.53274 46.9498 18.3077 C 0.0 **** 0.0
42290 C -4.75032 45.9131 19.3884 C 0.0 **** 0.0
42291 C -3.75285 46.1378 20.5324 C 0.0 **** 0.0
42292 C -5.55994 46.7368 17.1595 C 0.0 **** 0.0
42293 C -5.36269 47.8165 16.0678 C 0.0 **** 0.0
42294 C -5.51151 49.195 16.6725 C 0.0 **** 0.0
42295 C -4.86043 43.4964 19.967 C 0.0 **** 0.0
42296 C -4.5483 44.5 18.8424 C 0.0 **** 0.0
42297 C -5.39867 45.3344 16.5361 C 0.0 **** 0.0
42298 C -5.3326 44.201 17.5846 C 0.0 **** 0.0
42299 C -5.15153 42.7729 17.0039 C 0.0 **** 0.0
42300 C -5.26007 42.6975 15.4524 C 0.0 **** 0.0
42301 C -6.35541 43.5874 14.8602 C 0.0 **** 0.0
42302 C -6.4172 44.9238 15.467 C 0.0 **** 0.0
42303 O -7.31744 45.6771 15.1081 O 0.0 **** 0.0
42304 H -0.362108 35.041 47.0394 H 0.0 **** 0.0
42305 H -0.732897 36.5845 46.1127 H 0.0 **** 0.0
42306 H -0.405617 34.0883 44.9452 H 0.0 **** 0.0
42307 H -0.173076 35.5924 44.021 H 0.0 **** 0.0
42308 H 1.86999 33.9847 45.4935 H 0.0 **** 0.0
42309 H 3.52479 35.6346 45.2247 H 0.0 **** 0.0
42310 H 1.20998 37.6411 45.1347 H 0.0 **** 0.0
42311 H 2.71755 37.5283 46.0934 H 0.0 **** 0.0
42312 H 1.77359 36.7274 42.9614 H 0.0 **** 0.0
42313 H 3.17004 35.6345 41.3851 H 0.0 **** 0.0
42314 H 4.01244 33.8491 43.7446 H 0.0 **** 0.0
42315 H 3.51256 33.405 42.0687 H 0.0 **** 0.0
42316 H 1.68812 32.8357 43.6365 H 0.0 **** 0.0
42317 H 1.12653 34.0533 42.5727 H 0.0 **** 0.0
42318 H 6.31118 37.2441 42.4104 H 0.0 **** 0.0
42319 H 5.10083 38.9867 42.4327 H 0.0 **** 0.0
42320 H 2.80932 38.7164 43.5611 H 0.0 **** 0.0
42321 H 4.29491 37.9636 44.283 H 0.0 **** 0.0
42322 H 4.76729 36.0842 40.0359 H 0.0 **** 0.0
42323 H 2.66211 38.2188 37.978 H 0.0 **** 0.0
42324 H 2.16694 39.8812 37.4523 H 0.0 **** 0.0
42325 H 0.704686 38.8928 39.3691 H 0.0 **** 0.0
42326 H 1.57956 40.4519 39.7403 H 0.0 **** 0.0
42327 H 1.66897 38.476 41.5266 H 0.0 **** 0.0
42328 H 5.74676 34.5813 38.6061 H 0.0 **** 0.0
42329 H 9.92208 36.068 39.8472 H 0.0 **** 0.0
42330 H 9.65067 34.8113 41.1565 H 0.0 **** 0.0
42331 H 8.05547 36.4493 41.6823 H 0.0 **** 0.0
42332 H 10.6989 33.7134 37.9762 H 0.0 **** 0.0
42333 H 10.9643 33.4249 39.6912 H 0.0 **** 0.0
42334 H 9.31283 31.6073 39.6412 H 0.0 **** 0.0
42335 H 10.631 31.2875 38.4362 H 0.0 **** 0.0
42336 H 5.50172 32.8264 37.2562 H 0.0 **** 0.0
42337 H 6.4991 33.4011 35.8533 H 0.0 **** 0.0
42338 H 6.06622 30.6161 37.0112 H 0.0 **** 0.0
42339 H 8.05714 31.4523 34.7368 H 0.0 **** 0.0
42340 H 7.63683 29.8113 35.126 H 0.0 **** 0.0
42341 H 9.75449 30.6958 36.2395 H 0.0 **** 0.0
42342 H 8.60096 29.7974 37.2989 H 0.0 **** 0.0
42343 H 7.54925 35.7701 35.7628 H 0.0 **** 0.0
42344 H 3.32958 36.1359 31.9927 H 0.0 **** 0.0
42345 H 0.307743 37.1625 32.4724 H 0.0 **** 0.0
42346 H 5.24708 42.0003 33.4795 H 0.0 **** 0.0
42347 H 0.280779 38.3615 25.4443 H 0.0 **** 0.0
42348 H -0.755724 37.1243 26.9829 H 0.0 **** 0.0
42349 H 1.65505 36.4797 28.6963 H 0.0 **** 0.0
42350 H 1.31749 34.986 26.849 H 0.0 **** 0.0
42351 H -0.392591 34.9644 26.3251 H 0.0 **** 0.0
42352 H 0.13992 36.2351 24.3045 H 0.0 **** 0.0
42353 H 1.12359 34.7251 24.4466 H 0.0 **** 0.0
42354 H 3.15767 35.8365 24.9752 H 0.0 **** 0.0
42355 H 2.91957 37.3487 26.7538 H 0.0 **** 0.0
42356 H 2.49096 39.515 24.6477 H 0.0 **** 0.0
42357 H 3.41296 39.6913 25.9902 H 0.0 **** 0.0
42358 H 4.98151 37.6908 25.1253 H 0.0 **** 0.0
42359 H 5.06303 39.166 24.2579 H 0.0 **** 0.0
42360 H 4.55418 37.0015 22.8369 H 0.0 **** 0.0
42361 H 3.68444 38.542 22.4089 H 0.0 **** 0.0
42362 H 1.72339 37.8348 23.2921 H 0.0 **** 0.0
42363 H 2.62246 46.8226 33.8757 H 0.0 **** 0.0
42364 H 3.65955 45.6178 35.6846 H 0.0 **** 0.0
42365 H 0.989225 44.1555 36.2574 H 0.0 **** 0.0
42366 H 2.52299 43.8932 37.0747 H 0.0 **** 0.0
42367 H 2.2836 45.716 38.3858 H 0.0 **** 0.0
42368 H 0.552137 45.7586 37.8831 H 0.0 **** 0.0
42369 H 2.95999 47.4111 37.0541 H 0.0 **** 0.0
42370 H 1.41982 48.0071 37.6299 H 0.0 **** 0.0
42371 H 1.71242 48.3537 35.1287 H 0.0 **** 0.0
42372 H 0.296989 47.4091 35.475 H 0.0 **** 0.0
42373 H -0.992475 45.8991 31.9102 H 0.0 **** 0.0
42374 H -2.24803 46.4639 29.6806 H 0.0 **** 0.0
42375 H -0.989498 40.3416 26.0396 H 0.0 **** 0.0
42376 H -2.05836 40.9391 23.8606 H 0.0 **** 0.0
42377 H -2.01775 42.8952 22.6354 H 0.0 **** 0.0
42378 H -5.02782 43.0711 22.9603 H 0.0 **** 0.0
42379 H -3.60518 40.7665 21.6593 H 0.0 **** 0.0
42380 H -5.36181 41.1867 21.4661 H 0.0 **** 0.0
42381 H -4.2256 39.568 23.2692 H 0.0 **** 0.0
42382 H -5.69696 40.416 23.6782 H 0.0 **** 0.0
42383 H -3.93753 40.3964 25.4859 H 0.0 **** 0.0
42384 H -4.62935 41.9375 25.1268 H 0.0 **** 0.0
42385 H 4.21635 31.3927 35.5548 H 0.0 **** 0.0
42386 H 4.25451 31.8326 33.1722 H 0.0 **** 0.0
42387 H 6.02986 31.6239 33.154 H 0.0 **** 0.0
42388 H 5.22286 33.0572 34.0224 H 0.0 **** 0.0
42389 H 4.90421 28.9486 35.4964 H 0.0 **** 0.0
42390 H 5.77228 29.3302 33.9311 H 0.0 **** 0.0
42391 H 3.98334 29.5282 34.0381 H 0.0 **** 0.0
42392 H 0.0825317 35.1621 29.2277 H 0.0 **** 0.0
42393 H -2.56725 48.5383 26.1928 H 0.0 **** 0.0
42394 H -2.94734 50.4863 24.456 H 0.0 **** 0.0
42395 H -3.13142 51.1416 22.2072 H 0.0 **** 0.0
42396 H -3.7484 52.0619 19.9394 H 0.0 **** 0.0
42397 H -4.31471 51.5133 17.5379 H 0.0 **** 0.0
42398 H -6.08037 47.7316 15.2142 H 0.0 **** 0.0
42399 H -5.36899 50.0237 15.9466 H 0.0 **** 0.0
42400 H -4.82987 42.4565 19.5891 H 0.0 **** 0.0
42401 H -4.22369 42.2671 17.3749 H 0.0 **** 0.0
42402 H -6.01768 42.1671 17.3572 H 0.0 **** 0.0
42403 H -5.43456 41.6462 15.1278 H 0.0 **** 0.0
42404 H -4.34338 42.9971 14.9663 H 0.0 **** 0.0
42405 H -7.33716 43.0852 15.0534 H 0.0 **** 0.0
42406 H -6.2296 43.6569 13.7607 H 0.0 **** 0.0
42407 C 71.5909 91.9094 68.7093 C 0.0 **** 0.0
42408 C 73.0657 92.2008 69.1584 C 0.0 **** 0.0
42409 C 73.2443 93.5708 69.7916 C 0.0 **** 0.0
42410 C 72.5868 94.7025 68.9672 C 0.0 **** 0.0
42411 C 71.364 94.1341 68.2147 C 0.0 **** 0.0
42412 O 70.786 93.0356 68.8391 O 0.0 **** 0.0
42413 C 73.5577 95.4988 67.9906 C 0.0 **** 0.0
42414 C 75.0326 95.6581 68.4505 C 0.0 **** 0.0
42415 C 75.1843 95.3361 69.9068 C 0.0 **** 0.0
42416 C 74.7241 93.8544 70.1571 C 0.0 **** 0.0
42417 O 75.6019 96.9279 68.0976 O 0.0 **** 0.0
42418 C 75.3029 97.3446 66.7675 C 0.0 **** 0.0
42419 C 73.824 97.7194 66.6976 C 0.0 **** 0.0
42420 C 72.9482 96.8373 67.5643 C 0.0 **** 0.0
42421 C 73.2366 97.7959 65.2605 C 0.0 **** 0.0
42422 C 73.7072 96.8765 64.2834 C 0.0 **** 0.0
42423 C 75.2301 96.7687 64.2797 C 0.0 **** 0.0
42424 C 75.7718 96.3849 65.6272 C 0.0 **** 0.0
42425 C 75.7404 95.7627 63.1886 C 0.0 **** 0.0
42426 C 75.0841 95.9954 61.8431 C 0.0 **** 0.0
42427 C 73.5599 95.9151 62.0009 C 0.0 **** 0.0
42428 C 73.1159 97.0719 62.8887 C 0.0 **** 0.0
42429 C 71.6348 97.3433 62.9279 C 0.0 **** 0.0
42430 C 71.4352 98.6827 63.6306 C 0.0 **** 0.0
42431 C 72.2179 98.7144 64.928 C 0.0 **** 0.0
42432 O 72.8068 95.7634 60.8152 O 0.0 **** 0.0
42433 C 73.5627 96.2209 59.7014 C 0.0 **** 0.0
42434 C 74.7258 95.2938 59.4483 C 0.0 **** 0.0
42435 C 75.5512 95.0588 60.7625 C 0.0 **** 0.0
42436 C 77.2846 96.1765 65.5452 C 0.0 **** 0.0
42437 C 77.7244 95.1371 64.4939 C 0.0 **** 0.0
42438 C 77.2326 95.7098 63.1301 C 0.0 **** 0.0
42439 C 79.1717 94.7545 64.5847 C 0.0 **** 0.0
42440 C 80.0406 95.4882 65.3104 C 0.0 **** 0.0
42441 C 79.6407 96.7579 65.9914 C 0.0 **** 0.0
42442 C 78.1764 96.9911 66.1454 C 0.0 **** 0.0
42443 C 81.4903 95.0899 65.3123 C 0.0 **** 0.0
42444 C 81.8748 94.4219 63.9887 C 0.0 **** 0.0
42445 C 80.9305 93.2744 63.7587 C 0.0 **** 0.0
42446 C 79.5943 93.4107 64.0744 C 0.0 **** 0.0
42447 C 78.5685 92.277 64.0319 C 0.0 **** 0.0
42448 C 79.2672 90.9489 64.1613 C 0.0 **** 0.0
42449 C 80.3821 90.8581 63.0961 C 0.0 **** 0.0
42450 C 81.4699 91.9041 63.3709 C 0.0 **** 0.0
42451 C 77.0507 95.2483 60.6283 C 0.0 **** 0.0
42452 C 77.7326 94.8377 61.9322 C 0.0 **** 0.0
42453 C 75.4988 95.6402 58.1881 C 0.0 **** 0.0
42454 C 76.542 94.5759 57.9214 C 0.0 **** 0.0
42455 S 77.6373 94.1237 59.3153 S 0.0 **** 0.0
42456 C 77.322 95.0023 56.6732 C 0.0 **** 0.0
42457 C 76.3371 95.1181 55.4648 C 0.0 **** 0.0
42458 C 75.307 96.1788 55.6595 C 0.0 **** 0.0
42459 C 74.5733 95.7609 56.9481 C 0.0 **** 0.0
42460 C 74.3183 96.0371 54.4898 C 0.0 **** 0.0
42461 C 75.0258 96.2968 53.1637 C 0.0 **** 0.0
42462 C 76.0872 95.2039 52.9576 C 0.0 **** 0.0
42463 C 77.0612 95.1658 54.1316 C 0.0 **** 0.0
42464 C 76.7323 95.3489 51.5456 C 0.0 **** 0.0
42465 C 75.629 95.0307 50.5339 C 0.0 **** 0.0
42466 C 74.5097 96.0524 50.5403 C 0.0 **** 0.0
42467 C 74.0501 96.5458 51.9533 C 0.0 **** 0.0
42468 C 73.3597 96.6706 57.1986 C 0.0 **** 0.0
42469 C 72.6424 96.4371 58.4954 C 0.0 **** 0.0
42470 C 73.0565 96.8509 54.718 C 0.0 **** 0.0
42471 C 72.42 96.3758 56.0196 C 0.0 **** 0.0
42472 C 72.5831 96.1967 52.2954 C 0.0 **** 0.0
42473 C 72.1089 97.0147 53.4782 C 0.0 **** 0.0
42474 C 73.3955 95.9966 49.4307 C 0.0 **** 0.0
42475 C 72.0563 95.4661 49.9811 C 0.0 **** 0.0
42476 C 71.6395 96.4482 51.0859 C 0.0 **** 0.0
42477 O 76.2219 95.0091 49.2415 O 0.0 **** 0.0
42478 C 77.0069 93.8162 49.0923 C 0.0 **** 0.0
42479 C 77.8353 93.4239 50.3816 C 0.0 **** 0.0
42480 C 78.0756 94.6746 51.1914 C 0.0 **** 0.0
42481 C 79.1683 92.7522 50.0521 C 0.0 **** 0.0
42482 C 79.2096 91.9326 48.7716 C 0.0 **** 0.0
42483 C 78.9289 92.8641 47.5303 C 0.0 **** 0.0
42484 C 77.9515 94.0647 47.8775 C 0.0 **** 0.0
42485 C 77.0488 94.4226 46.6873 C 0.0 **** 0.0
42486 C 77.7584 94.1748 45.3634 C 0.0 **** 0.0
42487 C 78.2163 92.7428 45.1923 C 0.0 **** 0.0
42488 N 78.3818 92.0044 46.454 N 0.0 **** 0.0
42489 C 70.9208 96.7592 56.2614 C 0.0 **** 0.0
42490 C 70.0547 97.2054 55.0553 C 0.0 **** 0.0
42491 C 70.5885 96.7861 53.7193 C 0.0 **** 0.0
42492 O 68.6578 96.842 55.2807 O 0.0 **** 0.0
42493 C 68.489 95.4757 55.5139 C 0.0 **** 0.0
42494 C 69.5241 94.8233 56.4491 C 0.0 **** 0.0
42495 O 70.2759 95.8481 57.1156 O 0.0 **** 0.0
42496 C 70.4299 93.8169 55.7283 C 0.0 **** 0.0
42497 C 69.591 92.666 55.1767 C 0.0 **** 0.0
42498 C 68.2132 93.1291 54.6321 C 0.0 **** 0.0
42499 C 68.2074 94.6476 54.2655 C 0.0 **** 0.0
42500 C 70.1355 96.3439 51.4648 C 0.0 **** 0.0
42501 C 69.7811 97.3149 52.5385 C 0.0 **** 0.0
42502 C 70.9745 95.4554 48.9109 C 0.0 **** 0.0
42503 C 69.6261 95.0548 49.4829 C 0.0 **** 0.0
42504 C 69.124 96.1872 50.3326 C 0.0 **** 0.0
42505 C 71.3764 94.615 47.7247 C 0.0 **** 0.0
42506 C 72.6344 95.2059 47.0901 C 0.0 **** 0.0
42507 C 73.7973 95.3085 48.1071 C 0.0 **** 0.0
42508 O 68.6241 94.6091 48.5665 O 0.0 **** 0.0
42509 C 68.8784 95.0632 47.2429 C 0.0 **** 0.0
42510 C 70.1878 94.4334 46.7394 C 0.0 **** 0.0
42511 C 73.0022 94.32 45.8572 C 0.0 **** 0.0
42512 C 71.8758 94.3782 44.786 C 0.0 **** 0.0
42513 C 70.5035 94.8869 45.3344 C 0.0 **** 0.0
42514 C 71.6876 93.0047 44.0415 C 0.0 **** 0.0
42515 C 73.049 92.3556 43.7752 C 0.0 **** 0.0
42516 C 73.8774 92.0747 45.1016 C 0.0 **** 0.0
42517 C 73.3586 92.8616 46.3092 C 0.0 **** 0.0
42518 C 69.3609 94.3514 44.4788 C 0.0 **** 0.0
42519 C 68.1485 95.2012 44.7975 C 0.0 **** 0.0
42520 C 67.7149 94.8551 46.2417 C 0.0 **** 0.0
42521 C 70.7173 93.1555 42.8326 C 0.0 **** 0.0
42522 C 69.7235 94.3293 43.0234 C 0.0 **** 0.0
42523 C 78.2352 89.778 64.0869 C 0.0 **** 0.0
42524 C 77.6411 89.5327 62.6734 C 0.0 **** 0.0
42525 C 78.8404 88.4601 64.5932 C 0.0 **** 0.0
42526 O 78.886 94.4112 52.2575 O 0.0 **** 0.0
42527 C 66.3657 95.4558 46.626 C 0.0 **** 0.0
42528 C 65.6543 96.2465 45.4768 C 0.0 **** 0.0
42529 C 65.6438 95.4097 44.2473 C 0.0 **** 0.0
42530 C 67.0197 94.8655 43.8817 C 0.0 **** 0.0
42531 C 67.4319 94.9844 42.4195 C 0.0 **** 0.0
42532 C 66.2494 94.6271 41.4941 C 0.0 **** 0.0
42533 C 64.9711 95.4026 41.7784 C 0.0 **** 0.0
42534 C 65.0642 96.1767 43.0746 C 0.0 **** 0.0
42535 C 64.5408 96.2725 40.5977 C 0.0 **** 0.0
42536 C 64.3027 95.3269 39.4042 C 0.0 **** 0.0
42537 C 65.5141 94.47 39.0577 C 0.0 **** 0.0
42538 C 66.7113 94.7174 40.0267 C 0.0 **** 0.0
42539 C 67.8921 93.7884 39.7594 C 0.0 **** 0.0
42540 C 69.0282 94.1549 40.6918 C 0.0 **** 0.0
42541 C 68.5608 94.0529 42.1275 C 0.0 **** 0.0
42542 C 68.3431 94.0274 38.3133 C 0.0 **** 0.0
42543 C 67.2125 93.6972 37.3722 C 0.0 **** 0.0
42544 C 66.0157 94.6304 37.6336 C 0.0 **** 0.0
42545 C 71.3518 93.383 41.4747 C 0.0 **** 0.0
42546 C 70.2516 93.2418 40.4403 C 0.0 **** 0.0
42547 C 69.5807 93.1282 38.03 C 0.0 **** 0.0
42548 C 70.7362 93.3184 39.0129 C 0.0 **** 0.0
42549 C 71.6368 94.576 38.7268 C 0.0 **** 0.0
42550 C 72.1958 94.4831 37.2873 C 0.0 **** 0.0
42551 C 71.0357 94.4296 36.3057 C 0.0 **** 0.0
42552 C 70.0895 93.3158 36.6569 C 0.0 **** 0.0
42553 O 69.7247 92.5087 35.8409 O 0.0 **** 0.0
42554 H 71.1837 91.1336 69.4027 H 0.0 **** 0.0
42555 H 71.5296 91.4539 67.6866 H 0.0 **** 0.0
42556 H 73.3943 91.3807 69.8803 H 0.0 **** 0.0
42557 H 73.6967 92.1449 68.2543 H 0.0 **** 0.0
42558 H 72.6862 93.5451 70.7355 H 0.0 **** 0.0
42559 H 72.1957 95.4286 69.7256 H 0.0 **** 0.0
42560 H 71.6263 93.8252 67.1511 H 0.0 **** 0.0
42561 H 70.6168 94.9421 68.0781 H 0.0 **** 0.0
42562 H 73.6302 94.9327 67.0513 H 0.0 **** 0.0
42563 H 75.6529 94.8881 67.9383 H 0.0 **** 0.0
42564 H 74.5751 96.0489 70.4817 H 0.0 **** 0.0
42565 H 76.251 95.4619 70.2069 H 0.0 **** 0.0
42566 H 74.8727 93.6327 71.2242 H 0.0 **** 0.0
42567 H 75.3865 93.2189 69.5511 H 0.0 **** 0.0
42568 H 75.8695 98.2766 66.5361 H 0.0 **** 0.0
42569 H 73.715 98.7675 67.0813 H 0.0 **** 0.0
42570 H 71.9514 96.7541 67.1587 H 0.0 **** 0.0
42571 H 72.7522 97.4032 68.4785 H 0.0 **** 0.0
42572 H 75.3867 95.3513 65.8412 H 0.0 **** 0.0
42573 H 71.2584 97.3167 61.8948 H 0.0 **** 0.0
42574 H 71.1395 96.5499 63.4476 H 0.0 **** 0.0
42575 H 70.3746 98.8097 63.7639 H 0.0 **** 0.0
42576 H 71.7274 99.5024 62.9359 H 0.0 **** 0.0
42577 H 72.0039 99.4955 65.6317 H 0.0 **** 0.0
42578 H 77.0736 94.2818 64.7528 H 0.0 **** 0.0
42579 H 80.0756 97.5755 65.428 H 0.0 **** 0.0
42580 H 80.1003 96.824 66.9717 H 0.0 **** 0.0
42581 H 77.8542 97.7643 66.8484 H 0.0 **** 0.0
42582 H 82.1579 95.951 65.4694 H 0.0 **** 0.0
42583 H 81.6364 94.3643 66.1611 H 0.0 **** 0.0
42584 H 82.9014 94.0116 64.1519 H 0.0 **** 0.0
42585 H 81.8233 95.1067 63.1275 H 0.0 **** 0.0
42586 H 77.8185 92.3261 64.8675 H 0.0 **** 0.0
42587 H 78.0732 92.3087 63.0712 H 0.0 **** 0.0
42588 H 79.7404 90.8847 65.1688 H 0.0 **** 0.0
42589 H 79.9425 91.0955 62.1053 H 0.0 **** 0.0
42590 H 80.8253 89.8486 63.0287 H 0.0 **** 0.0
42591 H 82.0872 91.9987 62.429 H 0.0 **** 0.0
42592 H 82.1293 91.5543 64.1736 H 0.0 **** 0.0
42593 H 78.8202 94.8958 61.844 H 0.0 **** 0.0
42594 H 78.1496 94.3078 56.4931 H 0.0 **** 0.0
42595 H 77.6194 94.1683 54.0926 H 0.0 **** 0.0
42596 H 72.0614 97.3715 58.6445 H 0.0 **** 0.0
42597 H 76.3379 92.9235 48.925 H 0.0 **** 0.0
42598 H 77.2256 92.7051 50.9513 H 0.0 **** 0.0
42599 H 78.5899 95.3756 50.5289 H 0.0 **** 0.0
42600 H 79.9157 93.5438 49.9153 H 0.0 **** 0.0
42601 H 79.457 92.0709 50.8822 H 0.0 **** 0.0
42602 H 78.3629 91.2006 48.8044 H 0.0 **** 0.0
42603 H 80.0398 91.2831 48.673 H 0.0 **** 0.0
42604 H 79.9199 93.2385 47.247 H 0.0 **** 0.0
42605 H 78.5376 94.9639 48.144 H 0.0 **** 0.0
42606 H 76.1013 93.8492 46.684 H 0.0 **** 0.0
42607 H 76.7339 95.5076 46.6639 H 0.0 **** 0.0
42608 H 78.6097 94.8703 45.3962 H 0.0 **** 0.0
42609 H 77.0608 94.452 44.5137 H 0.0 **** 0.0
42610 H 79.1193 92.6294 44.5919 H 0.0 **** 0.0
42611 H 77.4097 92.2453 44.5608 H 0.0 **** 0.0
42612 H 77.4243 91.6353 46.7346 H 0.0 **** 0.0
42613 H 67.5588 95.4208 56.0693 H 0.0 **** 0.0
42614 H 68.9366 94.2868 57.2386 H 0.0 **** 0.0
42615 H 70.9529 94.2862 54.8412 H 0.0 **** 0.0
42616 H 71.1939 93.3305 56.3515 H 0.0 **** 0.0
42617 H 69.4154 91.9144 55.9628 H 0.0 **** 0.0
42618 H 70.1951 92.2122 54.3434 H 0.0 **** 0.0
42619 H 67.9253 92.579 53.739 H 0.0 **** 0.0
42620 H 67.4564 92.9164 55.3775 H 0.0 **** 0.0
42621 H 67.1928 94.8416 53.8956 H 0.0 **** 0.0
42622 H 68.8334 94.8729 53.3736 H 0.0 **** 0.0
42623 H 68.7086 97.1395 52.807 H 0.0 **** 0.0
42624 H 68.0943 95.9453 50.7694 H 0.0 **** 0.0
42625 H 74.626 95.8496 47.5858 H 0.0 **** 0.0
42626 H 73.9417 94.7876 45.3786 H 0.0 **** 0.0
42627 H 72.1577 95.1213 43.9809 H 0.0 **** 0.0
42628 H 71.2197 92.274 44.7173 H 0.0 **** 0.0
42629 H 73.624 92.9896 43.0758 H 0.0 **** 0.0
42630 H 72.8948 91.406 43.2582 H 0.0 **** 0.0
42631 H 74.932 92.3459 44.9389 H 0.0 **** 0.0
42632 H 73.8677 90.9951 45.398 H 0.0 **** 0.0
42633 H 74.2254 92.8488 47.0161 H 0.0 **** 0.0
42634 H 72.4629 92.3145 46.7449 H 0.0 **** 0.0
42635 H 77.3655 89.9761 64.7316 H 0.0 **** 0.0
42636 H 76.9055 88.7117 62.6753 H 0.0 **** 0.0
42637 H 78.5256 89.3325 61.9823 H 0.0 **** 0.0
42638 H 77.2269 90.3914 62.2188 H 0.0 **** 0.0
42639 H 79.0898 88.578 65.6544 H 0.0 **** 0.0
42640 H 79.7409 88.0962 64.0644 H 0.0 **** 0.0
42641 H 78.0412 87.6722 64.5266 H 0.0 **** 0.0
42642 H 79.4529 95.2218 52.3898 H 0.0 **** 0.0
42643 H 66.4578 96.135 47.5025 H 0.0 **** 0.0
42644 H 66.1558 97.2078 45.3038 H 0.0 **** 0.0
42645 H 64.041 96.5654 43.3169 H 0.0 **** 0.0
42646 H 63.6849 96.8818 40.8779 H 0.0 **** 0.0
42647 H 63.9043 95.8862 38.5723 H 0.0 **** 0.0
42648 H 67.4295 93.76 36.2988 H 0.0 **** 0.0
42649 H 65.1669 94.4272 36.9035 H 0.0 **** 0.0
42650 H 72.1028 92.6166 41.2622 H 0.0 **** 0.0
42651 H 71.0169 95.4917 38.8925 H 0.0 **** 0.0
42652 H 72.4858 94.6506 39.4327 H 0.0 **** 0.0
42653 H 72.863 93.5871 37.201 H 0.0 **** 0.0
42654 H 72.7785 95.4115 37.1467 H 0.0 **** 0.0
42655 H 71.4358 94.2607 35.2885 H 0.0 **** 0.0
42656 H 70.5687 95.3954 36.2504 H 0.0 **** 0.0
42657 C 19.0859 25.833 -3.15797 C 0.0 **** 0.0
42658 C 18.1108 26.5838 -4.12091 C 0.0 **** 0.0
42659 C 17.5476 27.8505 -3.46967 C 0.0 **** 0.0
42660 C 16.9433 27.5498 -2.05563 C 0.0 **** 0.0
42661 C 17.6339 26.2723 -1.41418 C 0.0 **** 0.0
42662 O 18.9763 26.1765 -1.79953 O 0.0 **** 0.0
42663 C 15.3832 27.5159 -2.07577 C 0.0 **** 0.0
42664 C 14.8561 28.923 -2.54802 C 0.0 **** 0.0
42665 C 15.722 29.5944 -3.65219 C 0.0 **** 0.0
42666 C 16.5527 28.5798 -4.45062 C 0.0 **** 0.0
42667 O 14.8161 29.8466 -1.45562 O 0.0 **** 0.0
42668 C 14.0783 29.4028 -0.308855 C 0.0 **** 0.0
42669 C 14.5733 28.0776 0.244191 C 0.0 **** 0.0
42670 C 14.6654 26.9829 -0.812815 C 0.0 **** 0.0
42671 C 13.6772 27.58 1.40347 C 0.0 **** 0.0
42672 C 12.253 27.6809 1.30683 C 0.0 **** 0.0
42673 C 11.736 28.9355 0.614203 C 0.0 **** 0.0
42674 C 12.5765 29.3386 -0.621592 C 0.0 **** 0.0
42675 C 10.2833 28.733 0.288112 C 0.0 **** 0.0
42676 C 9.49135 28.6046 1.61357 C 0.0 **** 0.0
42677 C 9.98252 27.4712 2.48464 C 0.0 **** 0.0
42678 C 11.5328 27.4819 2.64832 C 0.0 **** 0.0
42679 C 12.0574 26.2361 3.33404 C 0.0 **** 0.0
42680 C 13.5554 26.3389 3.60857 C 0.0 **** 0.0
42681 C 14.3194 26.916 2.45355 C 0.0 **** 0.0
42682 O 9.32434 27.4809 3.7402 O 0.0 **** 0.0
42683 C 7.94436 27.275 3.51294 C 0.0 **** 0.0
42684 C 7.29527 28.4003 2.69184 C 0.0 **** 0.0
42685 C 8.00949 28.301 1.32772 C 0.0 **** 0.0
42686 C 11.9214 30.5697 -1.14721 C 0.0 **** 0.0
42687 C 10.5717 30.3191 -1.78266 C 0.0 **** 0.0
42688 C 9.62898 29.8167 -0.66283 C 0.0 **** 0.0
42689 C 10.0385 31.585 -2.49384 C 0.0 **** 0.0
42690 C 10.4152 32.8249 -2.13302 C 0.0 **** 0.0
42691 C 11.5442 33.0593 -1.14874 C 0.0 **** 0.0
42692 C 12.2409 31.8182 -0.677945 C 0.0 **** 0.0
42693 C 9.6494 34.0561 -2.66143 C 0.0 **** 0.0
42694 C 8.19138 33.6645 -3.09951 C 0.0 **** 0.0
42695 C 8.28924 32.4661 -3.99795 C 0.0 **** 0.0
42696 C 9.11973 31.4269 -3.6486 C 0.0 **** 0.0
42697 C 9.27403 30.2352 -4.55458 C 0.0 **** 0.0
42698 C 8.72277 30.4838 -6.00618 C 0.0 **** 0.0
42699 C 7.37206 31.1831 -5.95072 C 0.0 **** 0.0
42700 C 7.53633 32.5666 -5.33587 C 0.0 **** 0.0
42701 C 7.46848 29.2517 0.287256 C 0.0 **** 0.0
42702 C 8.2429 29.315 -1.02192 C 0.0 **** 0.0
42703 C 5.76721 28.2153 2.58831 C 0.0 **** 0.0
42704 C 5.21419 29.3504 1.70592 C 0.0 **** 0.0
42705 S 5.70136 28.9047 0.0344197 S 0.0 **** 0.0
42706 C 3.70657 29.5469 1.73127 C 0.0 **** 0.0
42707 C 2.99531 29.1985 3.02251 C 0.0 **** 0.0
42708 C 3.92401 29.0011 4.23701 C 0.0 **** 0.0
42709 C 5.00498 27.9472 3.92946 C 0.0 **** 0.0
42710 C 3.1148 28.5893 5.43981 C 0.0 **** 0.0
42711 C 1.92635 29.5676 5.75934 C 0.0 **** 0.0
42712 C 1.06917 29.7916 4.52239 C 0.0 **** 0.0
42713 C 1.96247 30.2937 3.35395 C 0.0 **** 0.0
42714 C -0.169038 30.6853 4.81986 C 0.0 **** 0.0
42715 C -0.930368 30.2751 6.0901 C 0.0 **** 0.0
42716 C -0.0448525 30.0219 7.35275 C 0.0 **** 0.0
42717 C 1.13365 29.0767 6.9939 C 0.0 **** 0.0
42718 C 5.93895 27.8522 5.10116 C 0.0 **** 0.0
42719 C 7.18938 26.9472 4.83636 C 0.0 **** 0.0
42720 C 3.9833 28.3227 6.67192 C 0.0 **** 0.0
42721 C 5.22706 27.4091 6.3879 C 0.0 **** 0.0
42722 C 2.02821 28.8285 8.19786 C 0.0 **** 0.0
42723 C 3.13523 27.8234 7.89264 C 0.0 **** 0.0
42724 C -0.835016 29.3475 8.53802 C 0.0 **** 0.0
42725 C 0.112342 29.2989 9.74489 C 0.0 **** 0.0
42726 C 1.24571 28.3159 9.40293 C 0.0 **** 0.0
42727 O -1.96309 31.248 6.27759 O 0.0 **** 0.0
42728 C -3.06805 30.9045 5.43828 C 0.0 **** 0.0
42729 C -2.6117 30.5866 3.99551 C 0.0 **** 0.0
42730 C -1.21106 31.0971 3.70131 C 0.0 **** 0.0
42731 C -3.58654 30.9663 2.89528 C 0.0 **** 0.0
42732 C -5.04824 30.7317 3.34558 C 0.0 **** 0.0
42733 C -5.41897 31.6889 4.53895 C 0.0 **** 0.0
42734 C -4.21216 31.9586 5.51391 C 0.0 **** 0.0
42735 C -4.66516 32.0807 6.9854 C 0.0 **** 0.0
42736 C -6.02686 32.7934 7.06687 C 0.0 **** 0.0
42737 C -7.10306 31.969 6.28425 C 0.0 **** 0.0
42738 N -6.53871 31.0828 5.24677 N 0.0 **** 0.0
42739 C 6.12578 27.5862 7.59136 C 0.0 **** 0.0
42740 C 5.41281 27.087 8.85026 C 0.0 **** 0.0
42741 C 4.07339 27.8208 9.11079 C 0.0 **** 0.0
42742 O 6.2435 27.1997 9.95686 O 0.0 **** 0.0
42743 C 7.20437 26.1337 9.81893 C 0.0 **** 0.0
42744 C 7.72702 25.9788 8.37509 C 0.0 **** 0.0
42745 O 7.42351 27.0706 7.52616 O 0.0 **** 0.0
42746 C 7.30771 24.6486 7.74059 C 0.0 **** 0.0
42747 C 7.66455 23.3993 8.59572 C 0.0 **** 0.0
42748 C 7.5811 23.7056 10.1193 C 0.0 **** 0.0
42749 C 6.65877 24.8193 10.4439 C 0.0 **** 0.0
42750 C 2.19 28.1086 10.6147 C 0.0 **** 0.0
42751 C 3.38603 27.2266 10.313 C 0.0 **** 0.0
42752 C -0.588764 28.9378 11.0719 C 0.0 **** 0.0
42753 C -0.018293 27.775 11.9147 C 0.0 **** 0.0
42754 C 1.52948 27.7216 11.94 C 0.0 **** 0.0
42755 C -2.07895 28.5911 10.9964 C 0.0 **** 0.0
42756 C -2.80655 29.6339 10.2047 C 0.0 **** 0.0
42757 C -2.1189 30.1228 8.88236 C 0.0 **** 0.0
42758 O -0.537625 27.7852 13.24 O 0.0 **** 0.0
42759 C -1.87231 27.4197 13.1135 C 0.0 **** 0.0
42760 C -2.65204 28.5581 12.4257 C 0.0 **** 0.0
42761 C -4.33394 29.2694 10.0321 C 0.0 **** 0.0
42762 C -4.99337 29.023 11.4098 C 0.0 **** 0.0
42763 C -4.11537 28.1856 12.3645 C 0.0 **** 0.0
42764 C -6.30771 28.1919 11.3349 C 0.0 **** 0.0
42765 C -7.10763 28.6075 10.0764 C 0.0 **** 0.0
42766 C -6.32583 28.218 8.8252 C 0.0 **** 0.0
42767 C -4.75279 28.213 9.03398 C 0.0 **** 0.0
42768 C -4.67954 28.244 13.7828 C 0.0 **** 0.0
42769 C -3.8043 27.6321 14.892 C 0.0 **** 0.0
42770 C -2.50744 26.8775 14.3857 C 0.0 **** 0.0
42771 C -7.05148 28.2862 12.7232 C 0.0 **** 0.0
42772 C -6.12835 27.6898 13.8124 C 0.0 **** 0.0
42773 C 8.59213 29.0948 -6.7483 C 0.0 **** 0.0
42774 C 7.37683 28.222 -6.34713 C 0.0 **** 0.0
42775 C 8.68053 29.2646 -8.27837 C 0.0 **** 0.0
42776 O -0.814036 30.7024 2.42799 O 0.0 **** 0.0
42777 C -1.55254 26.6693 15.5351 C 0.0 **** 0.0
42778 C -2.25832 26.0024 16.6698 C 0.0 **** 0.0
42779 C -3.55487 26.6729 17.14 C 0.0 **** 0.0
42780 C -4.48705 26.8345 15.963 C 0.0 **** 0.0
42781 C -5.86602 27.3403 16.3884 C 0.0 **** 0.0
42782 C -6.43142 26.288 17.3249 C 0.0 **** 0.0
42783 C -5.53639 26.1645 18.5823 C 0.0 **** 0.0
42784 C -4.18779 25.708 18.1967 C 0.0 **** 0.0
42785 C -6.18606 25.1847 19.5382 C 0.0 **** 0.0
42786 C -7.53365 25.7032 20.0061 C 0.0 **** 0.0
42787 C -8.44854 25.7109 18.7718 C 0.0 **** 0.0
42788 C -7.83605 26.6379 17.6972 C 0.0 **** 0.0
42789 C -8.77708 26.8727 16.4921 C 0.0 **** 0.0
42790 C -8.06663 26.8242 15.1456 C 0.0 **** 0.0
42791 C -6.80879 27.6632 15.2038 C 0.0 **** 0.0
42792 C -10.0319 25.9354 16.5894 C 0.0 **** 0.0
42793 C -10.7353 26.3507 17.8782 C 0.0 **** 0.0
42794 C -9.88002 26.14 19.1328 C 0.0 **** 0.0
42795 C -8.32768 27.4197 12.6873 C 0.0 **** 0.0
42796 C -9.02991 27.2518 14.0547 C 0.0 **** 0.0
42797 C -10.9464 25.9982 15.3964 C 0.0 **** 0.0
42798 C -10.2507 26.2574 14.0299 C 0.0 **** 0.0
42799 C -11.2779 26.3916 12.8665 C 0.0 **** 0.0
42800 C -12.7485 25.9302 13.2377 C 0.0 **** 0.0
42801 C -12.7007 24.6113 14.0433 C 0.0 **** 0.0
42802 C -11.8825 24.8341 15.3132 C 0.0 **** 0.0
42803 O -11.9281 23.9777 16.2149 O 0.0 **** 0.0
42804 H 20.1263 25.9925 -3.44563 H 0.0 **** 0.0
42805 H 18.9255 24.723 -3.25595 H 0.0 **** 0.0
42806 H 18.6736 26.9043 -5.02328 H 0.0 **** 0.0
42807 H 17.2904 25.8961 -4.44177 H 0.0 **** 0.0
42808 H 18.4413 28.5731 -3.30963 H 0.0 **** 0.0
42809 H 17.2566 28.4525 -1.47645 H 0.0 **** 0.0
42810 H 17.0806 25.3079 -1.63968 H 0.0 **** 0.0
42811 H 17.5999 26.4027 -0.316971 H 0.0 **** 0.0
42812 H 15.115 26.7578 -2.81349 H 0.0 **** 0.0
42813 H 13.8678 28.8132 -3.02008 H 0.0 **** 0.0
42814 H 16.4253 30.3262 -3.21235 H 0.0 **** 0.0
42815 H 15.0778 30.1276 -4.37642 H 0.0 **** 0.0
42816 H 17.0808 29.12 -5.26724 H 0.0 **** 0.0
42817 H 15.9162 27.7874 -4.91387 H 0.0 **** 0.0
42818 H 14.2153 30.1782 0.520241 H 0.0 **** 0.0
42819 H 15.6108 28.1786 0.607483 H 0.0 **** 0.0
42820 H 13.6557 26.6231 -1.09385 H 0.0 **** 0.0
42821 H 15.208 26.1373 -0.384429 H 0.0 **** 0.0
42822 H 12.3632 28.5254 -1.37074 H 0.0 **** 0.0
42823 H 11.4838 26.0237 4.28502 H 0.0 **** 0.0
42824 H 12.0029 25.3174 2.63709 H 0.0 **** 0.0
42825 H 13.9877 25.344 3.91466 H 0.0 **** 0.0
42826 H 13.7453 27.0129 4.49942 H 0.0 **** 0.0
42827 H 15.4025 26.9057 2.55377 H 0.0 **** 0.0
42828 H 10.6762 29.4389 -2.46472 H 0.0 **** 0.0
42829 H 11.1297 33.5818 -0.254913 H 0.0 **** 0.0
42830 H 12.2673 33.7484 -1.62349 H 0.0 **** 0.0
42831 H 13.0841 31.9937 -0.0264628 H 0.0 **** 0.0
42832 H 9.5764 34.871 -1.90935 H 0.0 **** 0.0
42833 H 10.1263 34.4296 -3.56055 H 0.0 **** 0.0
42834 H 7.69345 34.5305 -3.58339 H 0.0 **** 0.0
42835 H 7.57174 33.3535 -2.26655 H 0.0 **** 0.0
42836 H 10.3527 30.0202 -4.61185 H 0.0 **** 0.0
42837 H 8.74657 29.384 -4.09135 H 0.0 **** 0.0
42838 H 9.43697 31.1505 -6.51053 H 0.0 **** 0.0
42839 H 6.64554 30.5529 -5.35222 H 0.0 **** 0.0
42840 H 6.96104 31.3279 -6.95258 H 0.0 **** 0.0
42841 H 6.537 32.965 -5.16118 H 0.0 **** 0.0
42842 H 8.10878 33.265 -5.95585 H 0.0 **** 0.0
42843 H 7.7861 30.0169 -1.75564 H 0.0 **** 0.0
42844 H 3.13652 29.1506 0.864866 H 0.0 **** 0.0
42845 H 1.38438 30.4795 2.42584 H 0.0 **** 0.0
42846 H 6.93629 25.837 4.79442 H 0.0 **** 0.0
42847 H -3.44882 29.9233 5.86256 H 0.0 **** 0.0
42848 H -2.51177 29.4852 3.99783 H 0.0 **** 0.0
42849 H -1.32064 32.1729 3.74992 H 0.0 **** 0.0
42850 H -3.42982 32.0209 2.60067 H 0.0 **** 0.0
42851 H -3.45073 30.301 1.99121 H 0.0 **** 0.0
42852 H -5.17335 29.6807 3.64557 H 0.0 **** 0.0
42853 H -5.67273 30.9908 2.51045 H 0.0 **** 0.0
42854 H -5.72816 32.6529 4.11044 H 0.0 **** 0.0
42855 H -3.76229 32.9653 5.22849 H 0.0 **** 0.0
42856 H -4.63314 31.0922 7.49877 H 0.0 **** 0.0
42857 H -3.91956 32.6936 7.56439 H 0.0 **** 0.0
42858 H -5.91257 33.7425 6.55035 H 0.0 **** 0.0
42859 H -6.26821 32.8386 8.14358 H 0.0 **** 0.0
42860 H -7.77999 32.709 5.80204 H 0.0 **** 0.0
42861 H -7.7142 31.3356 6.98611 H 0.0 **** 0.0
42862 H -6.17032 30.2194 5.70675 H 0.0 **** 0.0
42863 H 8.0643 26.4341 10.4106 H 0.0 **** 0.0
42864 H 8.84283 25.8772 8.43427 H 0.0 **** 0.0
42865 H 6.22553 24.7542 7.55455 H 0.0 **** 0.0
42866 H 7.7902 24.5511 6.75728 H 0.0 **** 0.0
42867 H 8.6653 23.0606 8.31524 H 0.0 **** 0.0
42868 H 6.97635 22.5326 8.36117 H 0.0 **** 0.0
42869 H 8.62642 24.0191 10.3916 H 0.0 **** 0.0
42870 H 7.23201 22.8261 10.6789 H 0.0 **** 0.0
42871 H 6.52512 24.8481 11.5114 H 0.0 **** 0.0
42872 H 5.69702 24.6377 9.9562 H 0.0 **** 0.0
42873 H 4.06304 27.2955 11.218 H 0.0 **** 0.0
42874 H 2.00424 28.2974 12.7187 H 0.0 **** 0.0
42875 H -2.81117 29.943 8.06481 H 0.0 **** 0.0
42876 H -4.79764 30.1906 9.60285 H 0.0 **** 0.0
42877 H -5.18292 29.975 11.9657 H 0.0 **** 0.0
42878 H -6.07416 27.1338 11.1575 H 0.0 **** 0.0
42879 H -7.27564 29.6981 10.1536 H 0.0 **** 0.0
42880 H -8.1084 28.1065 10.1018 H 0.0 **** 0.0
42881 H -6.5632 28.928 8.02506 H 0.0 **** 0.0
42882 H -6.66739 27.1856 8.5417 H 0.0 **** 0.0
42883 H -4.28608 28.3841 8.03958 H 0.0 **** 0.0
42884 H -4.42658 27.1876 9.37569 H 0.0 **** 0.0
42885 H 9.53288 28.544 -6.46897 H 0.0 **** 0.0
42886 H 7.47717 27.2277 -6.84929 H 0.0 **** 0.0
42887 H 6.37932 28.6784 -6.5425 H 0.0 **** 0.0
42888 H 7.46876 28.0396 -5.23558 H 0.0 **** 0.0
42889 H 9.58358 29.8313 -8.57796 H 0.0 **** 0.0
42890 H 7.85257 29.7845 -8.67731 H 0.0 **** 0.0
42891 H 8.71989 28.3097 -8.80357 H 0.0 **** 0.0
42892 H -0.62888 31.5312 1.90617 H 0.0 **** 0.0
42893 H -0.737212 26.0527 15.227 H 0.0 **** 0.0
42894 H -1.63691 25.913 17.5653 H 0.0 **** 0.0
42895 H -3.49403 25.5884 19.0356 H 0.0 **** 0.0
42896 H -5.47439 25.0443 20.4168 H 0.0 **** 0.0
42897 H -7.99251 25.0966 20.8171 H 0.0 **** 0.0
42898 H -11.7057 25.916 18.0769 H 0.0 **** 0.0
42899 H -10.3348 25.3776 19.8842 H 0.0 **** 0.0
42900 H -9.07357 27.8997 12.0432 H 0.0 **** 0.0
42901 H -11.3711 27.464 12.4887 H 0.0 **** 0.0
42902 H -10.8241 25.8105 12.0458 H 0.0 **** 0.0
42903 H -13.3322 25.7327 12.3773 H 0.0 **** 0.0
42904 H -13.2486 26.6669 13.8421 H 0.0 **** 0.0
42905 H -12.1273 23.9056 13.4432 H 0.0 **** 0.0
42906 H -13.7301 24.2594 14.3134 H 0.0 **** 0.0
42907 C 92.5829 -1.23087 43.7848 C 0.0 **** 0.0
42908 C 93.6265 -1.47003 44.8306 C 0.0 **** 0.0
42909 C 93.7102 -0.268098 45.8209 C 0.0 **** 0.0
42910 C 93.7228 1.10807 45.1031 C 0.0 **** 0.0
42911 C 93.6057 0.884835 43.5679 C 0.0 **** 0.0
42912 O 92.467 0.0725348 43.2944 O 0.0 **** 0.0
42913 C 94.8795 2.06574 45.4797 C 0.0 **** 0.0
42914 C 95.3601 1.93752 46.9501 C 0.0 **** 0.0
42915 C 94.906 0.704253 47.7496 C 0.0 **** 0.0
42916 C 94.8501 -0.511454 46.8101 C 0.0 **** 0.0
42917 O 94.9745 3.09519 47.7047 O 0.0 **** 0.0
42918 C 95.6047 4.25866 47.2576 C 0.0 **** 0.0
42919 C 95.4094 4.52741 45.7386 C 0.0 **** 0.0
42920 C 94.4781 3.52361 45.1225 C 0.0 **** 0.0
42921 C 96.7765 4.72087 45.0348 C 0.0 **** 0.0
42922 C 97.7505 5.60887 45.6892 C 0.0 **** 0.0
42923 C 97.7761 5.49654 47.2326 C 0.0 **** 0.0
42924 C 97.0669 4.28898 47.7632 C 0.0 **** 0.0
42925 C 99.2701 5.45455 47.6957 C 0.0 **** 0.0
42926 C 100.031 6.68318 47.1662 C 0.0 **** 0.0
42927 C 99.7761 6.93166 45.6445 C 0.0 **** 0.0
42928 C 99.1269 5.72215 45.0153 C 0.0 **** 0.0
42929 C 99.0802 5.65001 43.4782 C 0.0 **** 0.0
42930 C 98.442 4.31163 43.1069 C 0.0 **** 0.0
42931 C 97.0809 4.132 43.7728 C 0.0 **** 0.0
42932 O 100.886 7.36268 44.8773 O 0.0 **** 0.0
42933 C 101.55 8.33448 45.638 C 0.0 **** 0.0
42934 C 102.272 7.68309 46.8346 C 0.0 **** 0.0
42935 C 101.469 6.60014 47.4962 C 0.0 **** 0.0
42936 C 97.2808 4.19809 49.2762 C 0.0 **** 0.0
42937 C 98.7357 3.94395 49.5997 C 0.0 **** 0.0
42938 C 99.4614 5.28034 49.2255 C 0.0 **** 0.0
42939 C 98.9495 3.46414 51.0197 C 0.0 **** 0.0
42940 C 97.9605 3.69353 51.9638 C 0.0 **** 0.0
42941 C 96.7451 4.55236 51.6613 C 0.0 **** 0.0
42942 C 96.353 4.40355 50.2185 C 0.0 **** 0.0
42943 C 98.1692 3.14906 53.3553 C 0.0 **** 0.0
42944 C 99.6649 3.13406 53.7377 C 0.0 **** 0.0
42945 C 100.595 2.68998 52.6667 C 0.0 **** 0.0
42946 C 100.162 2.6534 51.394 C 0.0 **** 0.0
42947 C 100.958 1.91023 50.3357 C 0.0 **** 0.0
42948 C 102.159 1.03371 50.838 C 0.0 **** 0.0
42949 C 102.88 1.87819 51.8983 C 0.0 **** 0.0
42950 C 101.975 2.22944 53.1009 C 0.0 **** 0.0
42951 C 101.826 6.35869 48.9663 C 0.0 **** 0.0
42952 C 100.95 5.31912 49.6473 C 0.0 **** 0.0
42953 C 102.739 8.8806 47.6919 C 0.0 **** 0.0
42954 C 103.106 8.55554 49.1202 C 0.0 **** 0.0
42955 S 101.754 7.82021 50.0007 S 0.0 **** 0.0
42956 C 103.581 9.82963 49.8472 C 0.0 **** 0.0
42957 C 104.815 10.3242 49.1227 C 0.0 **** 0.0
42958 C 104.504 10.6972 47.6846 C 0.0 **** 0.0
42959 C 103.921 9.53219 46.9109 C 0.0 **** 0.0
42960 C 105.8 11.0343 47.0085 C 0.0 **** 0.0
42961 C 106.599 12.1264 47.7388 C 0.0 **** 0.0
42962 C 106.756 11.8569 49.2437 C 0.0 **** 0.0
42963 C 105.384 11.5444 49.8467 C 0.0 **** 0.0
42964 C 107.465 12.9928 49.9853 C 0.0 **** 0.0
42965 C 108.785 13.4312 49.3022 C 0.0 **** 0.0
42966 C 108.6 13.6495 47.7788 C 0.0 **** 0.0
42967 C 107.918 12.4332 47.0964 C 0.0 **** 0.0
42968 C 103.449 10.0215 45.529 C 0.0 **** 0.0
42969 C 102.63 8.99061 44.7473 C 0.0 **** 0.0
42970 C 105.587 11.4172 45.526 C 0.0 **** 0.0
42971 C 104.776 10.3478 44.7754 C 0.0 **** 0.0
42972 C 107.737 12.7185 45.5967 C 0.0 **** 0.0
42973 C 106.996 11.5759 44.8803 C 0.0 **** 0.0
42974 C 109.948 13.98 47.0606 C 0.0 **** 0.0
42975 C 109.681 14.2437 45.5707 C 0.0 **** 0.0
42976 C 109.087 13.0428 44.9127 C 0.0 **** 0.0
42977 O 109.169 14.6426 49.9083 O 0.0 **** 0.0
42978 C 109.62 14.5015 51.2252 C 0.0 **** 0.0
42979 C 108.944 13.349 52.073 C 0.0 **** 0.0
42980 C 107.643 12.734 51.4588 C 0.0 **** 0.0
42981 C 108.766 13.6599 53.5992 C 0.0 **** 0.0
42982 C 109.958 14.4593 54.0602 C 0.0 **** 0.0
42983 C 109.99 15.8677 53.4722 C 0.0 **** 0.0
42984 C 109.522 15.9049 51.9612 C 0.0 **** 0.0
42985 C 110.218 16.9975 51.1643 C 0.0 **** 0.0
42986 C 110.42 18.1936 52.0877 C 0.0 **** 0.0
42987 C 111.377 17.8633 53.279 C 0.0 **** 0.0
42988 N 111.318 16.4388 53.6378 N 0.0 **** 0.0
42989 C 104.561 10.8341 43.3199 C 0.0 **** 0.0
42990 C 105.948 10.9406 42.6732 C 0.0 **** 0.0
42991 C 106.89 11.9127 43.4156 C 0.0 **** 0.0
42992 O 105.827 11.2075 41.2919 O 0.0 **** 0.0
42993 C 105.059 12.3559 41.068 C 0.0 **** 0.0
42994 C 103.735 12.4084 41.8644 C 0.0 **** 0.0
42995 O 103.891 12.0642 43.2253 O 0.0 **** 0.0
42996 C 102.606 11.6718 41.1724 C 0.0 **** 0.0
42997 C 102.272 12.2889 39.8038 C 0.0 **** 0.0
42998 C 103.429 13.1487 39.2485 C 0.0 **** 0.0
42999 C 104.78 12.485 39.5574 C 0.0 **** 0.0
43000 C 108.918 13.1831 43.3776 C 0.0 **** 0.0
43001 C 108.218 11.8972 42.8229 C 0.0 **** 0.0
43002 C 110.996 14.6369 44.8578 C 0.0 **** 0.0
43003 C 110.946 14.5688 43.3043 C 0.0 **** 0.0
43004 C 110.322 13.3415 42.791 C 0.0 **** 0.0
43005 C 111.446 16.0111 45.3927 C 0.0 **** 0.0
43006 C 110.917 16.3866 46.7391 C 0.0 **** 0.0
43007 C 110.751 15.1727 47.7007 C 0.0 **** 0.0
43008 O 110.366 15.7138 42.7607 O 0.0 **** 0.0
43009 C 111.303 16.7435 42.9872 C 0.0 **** 0.0
43010 C 111.182 17.1775 44.4624 C 0.0 **** 0.0
43011 C 111.559 17.7163 47.3293 C 0.0 **** 0.0
43012 C 111.841 18.8508 46.2436 C 0.0 **** 0.0
43013 C 112.132 18.3248 44.8265 C 0.0 **** 0.0
43014 C 113.002 19.8295 46.6396 C 0.0 **** 0.0
43015 C 112.937 20.0154 48.1728 C 0.0 **** 0.0
43016 C 113.284 18.6857 48.8537 C 0.0 **** 0.0
43017 C 112.807 17.4142 48.0857 C 0.0 **** 0.0
43018 C 111.93 19.511 43.9175 C 0.0 **** 0.0
43019 C 112.133 19.0828 42.4435 C 0.0 **** 0.0
43020 C 111.19 17.9474 42.0166 C 0.0 **** 0.0
43021 C 112.844 21.1058 45.8143 C 0.0 **** 0.0
43022 C 112.905 20.6758 44.3138 C 0.0 **** 0.0
43023 C 103.038 0.511729 49.6518 C 0.0 **** 0.0
43024 C 103.9 1.66037 49.0767 C 0.0 **** 0.0
43025 C 103.874 -0.709849 50.0592 C 0.0 **** 0.0
43026 O 107.648 11.3457 51.7285 O 0.0 **** 0.0
43027 C 111.494 17.5164 40.6064 C 0.0 **** 0.0
43028 C 111.286 18.696 39.6694 C 0.0 **** 0.0
43029 C 112.217 19.8573 40.0836 C 0.0 **** 0.0
43030 C 111.951 20.2914 41.5102 C 0.0 **** 0.0
43031 C 112.885 21.4068 41.9279 C 0.0 **** 0.0
43032 C 112.896 22.5965 40.9306 C 0.0 **** 0.0
43033 C 111.963 22.3678 39.7107 C 0.0 **** 0.0
43034 C 112.178 20.9761 39.1229 C 0.0 **** 0.0
43035 C 112.234 23.4924 38.7009 C 0.0 **** 0.0
43036 C 111.904 24.8427 39.3148 C 0.0 **** 0.0
43037 C 112.836 25.0686 40.5247 C 0.0 **** 0.0
43038 C 112.551 23.9699 41.5584 C 0.0 **** 0.0
43039 C 113.026 24.2695 42.9708 C 0.0 **** 0.0
43040 C 113.566 23.0252 43.6983 C 0.0 **** 0.0
43041 C 112.677 21.8316 43.362 C 0.0 **** 0.0
43042 C 114.091 25.3725 43.0225 C 0.0 **** 0.0
43043 C 113.543 26.6804 42.342 C 0.0 **** 0.0
43044 C 112.661 26.4628 41.1646 C 0.0 **** 0.0
43045 C 113.835 22.2216 46.1058 C 0.0 **** 0.0
43046 C 113.673 23.3991 45.1662 C 0.0 **** 0.0
43047 C 114.553 25.6474 44.5077 C 0.0 **** 0.0
43048 C 114.85 24.3584 45.2644 C 0.0 **** 0.0
43049 C 115.266 24.7569 46.7181 C 0.0 **** 0.0
43050 C 116.583 25.6005 46.7892 C 0.0 **** 0.0
43051 C 116.973 26.1731 45.423 C 0.0 **** 0.0
43052 C 115.788 26.5288 44.5745 C 0.0 **** 0.0
43053 O 115.759 27.6433 44.0723 O 0.0 **** 0.0
43054 H 91.6028 -1.47389 44.236 H 0.0 **** 0.0
43055 H 92.692 -1.85255 42.8951 H 0.0 **** 0.0
43056 H 93.44 -2.39768 45.4274 H 0.0 **** 0.0
43057 H 94.6507 -1.55875 44.3713 H 0.0 **** 0.0
43058 H 92.7564 -0.304894 46.4266 H 0.0 **** 0.0
43059 H 92.8037 1.56414 45.4289 H 0.0 **** 0.0
43060 H 94.5021 0.424666 43.1212 H 0.0 **** 0.0
43061 H 93.4493 1.8378 43.0936 H 0.0 **** 0.0
43062 H 95.708 1.79943 44.8089 H 0.0 **** 0.0
43063 H 96.459 1.81475 46.911 H 0.0 **** 0.0
43064 H 93.9412 0.932939 48.2487 H 0.0 **** 0.0
43065 H 95.6403 0.5608 48.5289 H 0.0 **** 0.0
43066 H 94.6509 -1.44976 47.3916 H 0.0 **** 0.0
43067 H 95.9035 -0.701906 46.326 H 0.0 **** 0.0
43068 H 95.0339 5.06375 47.72 H 0.0 **** 0.0
43069 H 94.8972 5.5144 45.6363 H 0.0 **** 0.0
43070 H 94.3919 3.63534 44.05 H 0.0 **** 0.0
43071 H 93.4141 3.69779 45.4689 H 0.0 **** 0.0
43072 H 97.5358 3.44908 47.3084 H 0.0 **** 0.0
43073 H 98.4465 6.52219 43.1605 H 0.0 **** 0.0
43074 H 100.1 5.6354 43.0626 H 0.0 **** 0.0
43075 H 99.0722 3.41412 43.3736 H 0.0 **** 0.0
43076 H 98.2662 4.26167 41.9976 H 0.0 **** 0.0
43077 H 96.3621 3.52161 43.2133 H 0.0 **** 0.0
43078 H 99.1641 3.1848 48.8561 H 0.0 **** 0.0
43079 H 96.9977 5.59448 51.8741 H 0.0 **** 0.0
43080 H 95.9587 4.28712 52.3546 H 0.0 **** 0.0
43081 H 95.325 4.60291 50.0223 H 0.0 **** 0.0
43082 H 97.6151 3.72567 54.0867 H 0.0 **** 0.0
43083 H 97.7337 2.1429 53.4371 H 0.0 **** 0.0
43084 H 99.7486 2.43313 54.6328 H 0.0 **** 0.0
43085 H 99.9604 4.19063 54.0477 H 0.0 **** 0.0
43086 H 100.293 1.20651 49.7506 H 0.0 **** 0.0
43087 H 101.28 2.63783 49.5723 H 0.0 **** 0.0
43088 H 101.789 0.140691 51.3369 H 0.0 **** 0.0
43089 H 103.207 2.86791 51.437 H 0.0 **** 0.0
43090 H 103.762 1.31005 52.307 H 0.0 **** 0.0
43091 H 102.51 3.05033 53.7062 H 0.0 **** 0.0
43092 H 101.885 1.29564 53.7477 H 0.0 **** 0.0
43093 H 101.126 5.29429 50.7685 H 0.0 **** 0.0
43094 H 102.746 10.5748 49.8971 H 0.0 **** 0.0
43095 H 105.428 11.299 50.9387 H 0.0 **** 0.0
43096 H 102.179 9.41952 43.8147 H 0.0 **** 0.0
43097 H 110.713 14.2412 51.2148 H 0.0 **** 0.0
43098 H 109.705 12.5288 52.0745 H 0.0 **** 0.0
43099 H 106.783 13.2495 51.9275 H 0.0 **** 0.0
43100 H 107.887 14.2851 53.7539 H 0.0 **** 0.0
43101 H 108.737 12.6903 54.1446 H 0.0 **** 0.0
43102 H 110.976 14.0149 53.9634 H 0.0 **** 0.0
43103 H 109.911 14.5279 55.1803 H 0.0 **** 0.0
43104 H 109.318 16.5232 54.0903 H 0.0 **** 0.0
43105 H 108.413 16.1606 51.9865 H 0.0 **** 0.0
43106 H 111.21 16.6827 50.761 H 0.0 **** 0.0
43107 H 109.579 17.2503 50.282 H 0.0 **** 0.0
43108 H 109.423 18.5251 52.4348 H 0.0 **** 0.0
43109 H 110.862 19.0207 51.4798 H 0.0 **** 0.0
43110 H 111.117 18.4975 54.1501 H 0.0 **** 0.0
43111 H 112.39 18.0215 52.9482 H 0.0 **** 0.0
43112 H 111.95 15.9013 52.9903 H 0.0 **** 0.0
43113 H 105.567 13.2656 41.4103 H 0.0 **** 0.0
43114 H 103.362 13.4548 41.8819 H 0.0 **** 0.0
43115 H 102.97 10.5977 41.0524 H 0.0 **** 0.0
43116 H 101.712 11.6999 41.8623 H 0.0 **** 0.0
43117 H 101.388 12.8821 39.855 H 0.0 **** 0.0
43118 H 102.009 11.4575 39.0741 H 0.0 **** 0.0
43119 H 103.41 14.1849 39.6083 H 0.0 **** 0.0
43120 H 103.268 13.2362 38.1558 H 0.0 **** 0.0
43121 H 105.6 13.1005 39.0803 H 0.0 **** 0.0
43122 H 104.791 11.4639 39.0689 H 0.0 **** 0.0
43123 H 108.144 12.0536 41.702 H 0.0 **** 0.0
43124 H 110.339 13.3999 41.6944 H 0.0 **** 0.0
43125 H 111.765 14.792 47.9694 H 0.0 **** 0.0
43126 H 110.853 18.143 48.1185 H 0.0 **** 0.0
43127 H 110.897 19.4233 46.1785 H 0.0 **** 0.0
43128 H 113.994 19.4335 46.4183 H 0.0 **** 0.0
43129 H 111.929 20.3731 48.5159 H 0.0 **** 0.0
43130 H 113.753 20.7072 48.4924 H 0.0 **** 0.0
43131 H 112.808 18.6634 49.883 H 0.0 **** 0.0
43132 H 114.382 18.6912 49.0295 H 0.0 **** 0.0
43133 H 112.65 16.5897 48.8359 H 0.0 **** 0.0
43134 H 113.572 17.1055 47.3144 H 0.0 **** 0.0
43135 H 102.346 0.135432 48.849 H 0.0 **** 0.0
43136 H 104.349 1.34923 48.0922 H 0.0 **** 0.0
43137 H 104.746 1.89317 49.7674 H 0.0 **** 0.0
43138 H 103.252 2.51301 48.8226 H 0.0 **** 0.0
43139 H 103.258 -1.50827 50.4198 H 0.0 **** 0.0
43140 H 104.585 -0.451643 50.819 H 0.0 **** 0.0
43141 H 104.564 -1.08042 49.2643 H 0.0 **** 0.0
43142 H 107.289 11.1522 52.6466 H 0.0 **** 0.0
43143 H 110.766 16.7492 40.3147 H 0.0 **** 0.0
43144 H 111.507 18.3462 38.6496 H 0.0 **** 0.0
43145 H 113.129 20.9791 38.5658 H 0.0 **** 0.0
43146 H 111.712 23.3741 37.7598 H 0.0 **** 0.0
43147 H 112.096 25.5656 38.5107 H 0.0 **** 0.0
43148 H 113.06 27.4177 43.0587 H 0.0 **** 0.0
43149 H 113.0 27.2437 40.4651 H 0.0 **** 0.0
43150 H 113.631 22.5684 47.127 H 0.0 **** 0.0
43151 H 114.414 25.295 47.225 H 0.0 **** 0.0
43152 H 115.449 23.835 47.3442 H 0.0 **** 0.0
43153 H 117.411 24.9811 47.2068 H 0.0 **** 0.0
43154 H 116.49 26.4404 47.4846 H 0.0 **** 0.0
43155 H 117.497 25.3654 44.8301 H 0.0 **** 0.0
43156 H 117.682 27.03 45.563 H 0.0 **** 0.0
43157 C 106.958 70.2001 44.1488 C 0.0 **** 0.0
43158 C 106.839 70.9592 42.7951 C 0.0 **** 0.0
43159 C 108.22 71.5226 42.3847 C 0.0 **** 0.0
43160 C 108.888 72.185 43.5707 C 0.0 **** 0.0
43161 C 108.979 71.1882 44.7081 C 0.0 **** 0.0
43162 O 108.316 69.9723 44.4407 O 0.0 **** 0.0
43163 C 108.18 73.5187 43.9513 C 0.0 **** 0.0
43164 C 107.843 74.3791 42.6869 C 0.0 **** 0.0
43165 C 108.622 73.9375 41.4448 C 0.0 **** 0.0
43166 C 108.237 72.4843 41.1314 C 0.0 **** 0.0
43167 O 108.031 75.7755 42.8834 O 0.0 **** 0.0
43168 C 107.551 76.1975 44.1491 C 0.0 **** 0.0
43169 C 108.472 75.6491 45.232 C 0.0 **** 0.0
43170 C 109.119 74.3121 44.8796 C 0.0 **** 0.0
43171 C 107.81 75.5808 46.6035 C 0.0 **** 0.0
43172 C 106.398 75.2009 46.6866 C 0.0 **** 0.0
43173 C 105.626 76.2459 45.8105 C 0.0 **** 0.0
43174 C 106.008 76.0052 44.3281 C 0.0 **** 0.0
43175 C 104.103 76.2323 46.0382 C 0.0 **** 0.0
43176 C 103.842 76.4633 47.5419 C 0.0 **** 0.0
43177 C 104.341 75.2613 48.367 C 0.0 **** 0.0
43178 C 105.851 75.1176 48.1597 C 0.0 **** 0.0
43179 C 106.643 75.8357 49.2647 C 0.0 **** 0.0
43180 C 107.727 76.8084 48.7671 C 0.0 **** 0.0
43181 C 108.528 76.1586 47.6857 C 0.0 **** 0.0
43182 O 103.647 74.0765 48.0588 O 0.0 **** 0.0
43183 C 102.321 74.2691 48.5419 C 0.0 **** 0.0
43184 C 101.537 75.3763 47.7419 C 0.0 **** 0.0
43185 C 102.353 76.6898 47.8479 C 0.0 **** 0.0
43186 C 105.131 76.9043 43.4219 C 0.0 **** 0.0
43187 C 103.63 76.8692 43.6719 C 0.0 **** 0.0
43188 C 103.404 77.2938 45.1564 C 0.0 **** 0.0
43189 C 102.802 77.5822 42.6685 C 0.0 **** 0.0
43190 C 103.358 78.5137 41.8802 C 0.0 **** 0.0
43191 C 104.85 78.7206 41.7553 C 0.0 **** 0.0
43192 C 105.658 77.766 42.541 C 0.0 **** 0.0
43193 C 102.554 79.3101 40.8949 C 0.0 **** 0.0
43194 C 101.099 79.4406 41.3142 C 0.0 **** 0.0
43195 C 100.557 78.1333 41.7132 C 0.0 **** 0.0
43196 C 101.316 77.2709 42.4649 C 0.0 **** 0.0
43197 C 100.614 76.0487 42.9954 C 0.0 **** 0.0
43198 C 99.7381 75.4192 41.9208 C 0.0 **** 0.0
43199 C 98.6027 76.4366 41.6229 C 0.0 **** 0.0
43200 C 99.1255 77.8252 41.2166 C 0.0 **** 0.0
43201 C 101.749 77.7866 47.0311 C 0.0 **** 0.0
43202 C 101.912 77.5496 45.5446 C 0.0 **** 0.0
43203 C 100.06 75.5476 48.2106 C 0.0 **** 0.0
43204 C 99.3163 76.574 47.3189 C 0.0 **** 0.0
43205 S 100.032 78.2599 47.5909 S 0.0 **** 0.0
43206 C 97.7894 76.5574 47.5333 C 0.0 **** 0.0
43207 C 97.209 75.1528 47.6144 C 0.0 **** 0.0
43208 C 97.9396 74.2386 48.5096 C 0.0 **** 0.0
43209 C 99.4477 74.1732 48.1829 C 0.0 **** 0.0
43210 C 97.3716 72.7686 48.4672 C 0.0 **** 0.0
43211 C 95.8691 72.7919 48.7625 C 0.0 **** 0.0
43212 C 95.1183 73.7659 47.7906 C 0.0 **** 0.0
43213 C 95.7178 75.134 48.0426 C 0.0 **** 0.0
43214 C 93.5902 73.7444 48.1404 C 0.0 **** 0.0
43215 C 93.0123 72.28 48.0445 C 0.0 **** 0.0
43216 C 93.8056 71.2394 48.8377 C 0.0 **** 0.0
43217 C 95.3505 71.3633 48.5941 C 0.0 **** 0.0
43218 C 100.182 73.3314 49.1542 C 0.0 **** 0.0
43219 C 101.553 72.9466 48.6083 C 0.0 **** 0.0
43220 C 98.1883 71.7624 49.2945 C 0.0 **** 0.0
43221 C 99.3296 72.4222 50.0171 C 0.0 **** 0.0
43222 C 96.2013 70.3008 49.4663 C 0.0 **** 0.0
43223 C 97.2739 71.0212 50.2757 C 0.0 **** 0.0
43224 C 93.4869 69.7458 48.6025 C 0.0 **** 0.0
43225 C 94.0922 68.8857 49.7393 C 0.0 **** 0.0
43226 C 95.272 69.554 50.4361 C 0.0 **** 0.0
43227 O 91.6953 72.1249 48.4729 O 0.0 **** 0.0
43228 C 90.8513 73.2257 48.1838 C 0.0 **** 0.0
43229 C 91.3428 74.1492 47.0438 C 0.0 **** 0.0
43230 C 92.7654 74.6937 47.2418 C 0.0 **** 0.0
43231 C 90.2912 75.2881 46.7713 C 0.0 **** 0.0
43232 C 89.312 75.5113 47.9169 C 0.0 **** 0.0
43233 C 89.944 75.3753 49.3261 C 0.0 **** 0.0
43234 C 90.5435 73.9672 49.5631 C 0.0 **** 0.0
43235 C 89.7371 73.0717 50.5095 C 0.0 **** 0.0
43236 C 89.544 73.7678 51.8541 C 0.0 **** 0.0
43237 C 89.2781 75.3077 51.7514 C 0.0 **** 0.0
43238 N 88.956 75.792 50.3955 N 0.0 **** 0.0
43239 C 100.065 71.5874 50.9528 C 0.0 **** 0.0
43240 C 99.0114 71.0108 51.9549 C 0.0 **** 0.0
43241 C 98.0692 70.097 51.2001 C 0.0 **** 0.0
43242 O 99.5737 70.4279 53.0552 O 0.0 **** 0.0
43243 C 100.48 71.3354 53.6847 C 0.0 **** 0.0
43244 C 101.57 71.8275 52.6798 C 0.0 **** 0.0
43245 O 100.989 72.4599 51.5968 O 0.0 **** 0.0
43246 C 102.531 70.7276 52.1948 C 0.0 **** 0.0
43247 C 102.521 69.4476 53.1163 C 0.0 **** 0.0
43248 C 102.397 69.816 54.6034 C 0.0 **** 0.0
43249 C 101.16 70.6559 54.8991 C 0.0 **** 0.0
43250 C 95.9639 68.6166 51.3989 C 0.0 **** 0.0
43251 C 97.1379 69.3363 52.148 C 0.0 **** 0.0
43252 C 93.0747 68.6106 50.8811 C 0.0 **** 0.0
43253 C 93.6176 67.6298 51.8974 C 0.0 **** 0.0
43254 C 95.0036 68.0956 52.4651 C 0.0 **** 0.0
43255 C 91.6988 68.1637 50.3538 C 0.0 **** 0.0
43256 C 91.148 69.231 49.4009 C 0.0 **** 0.0
43257 C 92.0705 69.3273 48.1775 C 0.0 **** 0.0
43258 O 92.7478 67.5497 53.0212 O 0.0 **** 0.0
43259 C 91.4582 67.1711 52.5983 C 0.0 **** 0.0
43260 C 90.8875 68.1596 51.6132 C 0.0 **** 0.0
43261 C 89.6888 69.0945 49.056 C 0.0 **** 0.0
43262 C 88.8048 68.808 50.2803 C 0.0 **** 0.0
43263 C 89.4124 67.91 51.3478 C 0.0 **** 0.0
43264 C 87.4025 68.2059 49.9589 C 0.0 **** 0.0
43265 C 86.9196 68.7862 48.6006 C 0.0 **** 0.0
43266 C 87.8421 68.2886 47.4662 C 0.0 **** 0.0
43267 C 89.3214 68.1115 47.9301 C 0.0 **** 0.0
43268 C 88.5931 68.1719 52.6175 C 0.0 **** 0.0
43269 C 89.263 67.7154 53.9753 C 0.0 **** 0.0
43270 C 90.4987 66.8372 53.7867 C 0.0 **** 0.0
43271 C 86.5372 68.3953 51.1959 C 0.0 **** 0.0
43272 C 87.1557 67.6619 52.4037 C 0.0 **** 0.0
43273 C 99.2753 73.9569 42.1585 C 0.0 **** 0.0
43274 C 98.0696 73.7749 43.0699 C 0.0 **** 0.0
43275 C 98.9896 73.3495 40.7676 C 0.0 **** 0.0
43276 O 93.382 74.7899 46.0281 O 0.0 **** 0.0
43277 C 91.2654 66.6836 55.1239 C 0.0 **** 0.0
43278 C 90.3548 66.1776 56.2647 C 0.0 **** 0.0
43279 C 89.0522 66.9896 56.3644 C 0.0 **** 0.0
43280 C 88.3365 67.0419 54.9711 C 0.0 **** 0.0
43281 C 86.9649 67.7186 55.0609 C 0.0 **** 0.0
43282 C 86.1618 66.9415 56.0773 C 0.0 **** 0.0
43283 C 86.7583 66.9563 57.4691 C 0.0 **** 0.0
43284 C 88.1491 66.3484 57.4161 C 0.0 **** 0.0
43285 C 85.9344 66.0915 58.4146 C 0.0 **** 0.0
43286 C 84.4976 66.5566 58.4362 C 0.0 **** 0.0
43287 C 83.8952 66.4545 57.0071 C 0.0 **** 0.0
43288 C 84.6824 67.4137 56.1359 C 0.0 **** 0.0
43289 C 84.0739 67.6937 54.7745 C 0.0 **** 0.0
43290 C 84.8775 67.389 53.4983 C 0.0 **** 0.0
43291 C 86.3056 67.8983 53.6806 C 0.0 **** 0.0
43292 C 82.5576 67.5418 54.6711 C 0.0 **** 0.0
43293 C 81.8656 66.6292 55.7026 C 0.0 **** 0.0
43294 C 82.4274 66.8198 57.0795 C 0.0 **** 0.0
43295 C 85.0527 68.0077 51.0464 C 0.0 **** 0.0
43296 C 84.2438 68.1736 52.3487 C 0.0 **** 0.0
43297 C 82.1105 67.1206 53.2348 C 0.0 **** 0.0
43298 C 82.6672 68.1142 52.2166 C 0.0 **** 0.0
43299 C 82.1063 69.5243 52.3833 C 0.0 **** 0.0
43300 C 80.6702 69.602 53.0011 C 0.0 **** 0.0
43301 C 79.8414 68.3136 52.7705 C 0.0 **** 0.0
43302 C 80.635 67.0495 53.1457 C 0.0 **** 0.0
43303 O 80.0555 65.9798 53.2838 O 0.0 **** 0.0
43304 H 106.524 69.2009 44.0775 H 0.0 **** 0.0
43305 H 106.433 70.7209 44.9057 H 0.0 **** 0.0
43306 H 106.527 70.2588 42.0466 H 0.0 **** 0.0
43307 H 106.087 71.7823 42.884 H 0.0 **** 0.0
43308 H 108.81 70.6432 42.1434 H 0.0 **** 0.0
43309 H 109.923 72.407 43.2423 H 0.0 **** 0.0
43310 H 108.61 71.628 45.6698 H 0.0 **** 0.0
43311 H 110.065 70.9747 44.8392 H 0.0 **** 0.0
43312 H 107.231 73.2539 44.4667 H 0.0 **** 0.0
43313 H 106.783 74.2844 42.4373 H 0.0 **** 0.0
43314 H 109.732 73.9816 41.5934 H 0.0 **** 0.0
43315 H 108.318 74.6087 40.614 H 0.0 **** 0.0
43316 H 108.958 72.0735 40.4242 H 0.0 **** 0.0
43317 H 107.226 72.4325 40.5665 H 0.0 **** 0.0
43318 H 107.67 77.279 44.289 H 0.0 **** 0.0
43319 H 109.324 76.3699 45.3041 H 0.0 **** 0.0
43320 H 109.285 73.7396 45.8038 H 0.0 **** 0.0
43321 H 110.069 74.4711 44.3711 H 0.0 **** 0.0
43322 H 105.69 74.955 44.1115 H 0.0 **** 0.0
43323 H 105.91 76.3789 49.9112 H 0.0 **** 0.0
43324 H 107.136 75.1127 49.8972 H 0.0 **** 0.0
43325 H 108.431 77.1532 49.5771 H 0.0 **** 0.0
43326 H 107.265 77.7096 48.3036 H 0.0 **** 0.0
43327 H 109.543 76.4089 47.5895 H 0.0 **** 0.0
43328 H 103.336 75.8408 43.5495 H 0.0 **** 0.0
43329 H 105.121 79.7688 42.1117 H 0.0 **** 0.0
43330 H 105.12 78.5914 40.6879 H 0.0 **** 0.0
43331 H 106.725 77.8913 42.3721 H 0.0 **** 0.0
43332 H 102.989 80.3031 40.586 H 0.0 **** 0.0
43333 H 102.616 78.723 39.9696 H 0.0 **** 0.0
43334 H 100.551 79.8257 40.3888 H 0.0 **** 0.0
43335 H 100.993 80.1784 42.1391 H 0.0 **** 0.0
43336 H 101.363 75.2605 43.3254 H 0.0 **** 0.0
43337 H 99.9804 76.383 43.8744 H 0.0 **** 0.0
43338 H 100.308 75.4673 40.984 H 0.0 **** 0.0
43339 H 97.975 76.6165 42.5291 H 0.0 **** 0.0
43340 H 97.9039 76.0752 40.8602 H 0.0 **** 0.0
43341 H 98.4472 78.648 41.618 H 0.0 **** 0.0
43342 H 99.075 77.8213 40.1017 H 0.0 **** 0.0
43343 H 101.559 78.4584 45.0187 H 0.0 **** 0.0
43344 H 97.2996 77.1626 46.7927 H 0.0 **** 0.0
43345 H 95.13 75.8781 47.4815 H 0.0 **** 0.0
43346 H 102.127 72.2238 49.2192 H 0.0 **** 0.0
43347 H 89.8906 72.7464 47.7498 H 0.0 **** 0.0
43348 H 91.3486 73.5084 46.1442 H 0.0 **** 0.0
43349 H 92.7857 75.6427 47.7909 H 0.0 **** 0.0
43350 H 90.8327 76.2539 46.5168 H 0.0 **** 0.0
43351 H 89.6886 75.0774 45.8801 H 0.0 **** 0.0
43352 H 88.4896 74.7764 47.8364 H 0.0 **** 0.0
43353 H 88.9195 76.5473 47.8595 H 0.0 **** 0.0
43354 H 90.7482 76.1015 49.4116 H 0.0 **** 0.0
43355 H 91.5363 74.1147 50.0936 H 0.0 **** 0.0
43356 H 88.7515 72.9117 50.0581 H 0.0 **** 0.0
43357 H 90.2513 72.1412 50.6887 H 0.0 **** 0.0
43358 H 90.491 73.6156 52.4765 H 0.0 **** 0.0
43359 H 88.7254 73.2858 52.3987 H 0.0 **** 0.0
43360 H 90.1805 75.8947 52.0622 H 0.0 **** 0.0
43361 H 88.446 75.5269 52.4469 H 0.0 **** 0.0
43362 H 88.0271 75.4302 50.121 H 0.0 **** 0.0
43363 H 99.9337 72.2076 54.0728 H 0.0 **** 0.0
43364 H 102.182 72.5803 53.2505 H 0.0 **** 0.0
43365 H 102.347 70.421 51.1543 H 0.0 **** 0.0
43366 H 103.565 71.1281 52.0852 H 0.0 **** 0.0
43367 H 103.407 68.8452 53.0072 H 0.0 **** 0.0
43368 H 101.628 68.7785 52.8974 H 0.0 **** 0.0
43369 H 103.264 70.4369 54.9063 H 0.0 **** 0.0
43370 H 102.372 68.8782 55.2038 H 0.0 **** 0.0
43371 H 101.467 71.4883 55.5734 H 0.0 **** 0.0
43372 H 100.391 70.0399 55.3989 H 0.0 **** 0.0
43373 H 97.6668 68.5478 52.6777 H 0.0 **** 0.0
43374 H 95.4316 67.2162 52.9984 H 0.0 **** 0.0
43375 H 91.649 69.9722 47.3354 H 0.0 **** 0.0
43376 H 89.4643 70.102 48.6408 H 0.0 **** 0.0
43377 H 88.6916 69.7977 50.7255 H 0.0 **** 0.0
43378 H 87.5419 67.0498 49.896 H 0.0 **** 0.0
43379 H 86.9185 69.8604 48.7244 H 0.0 **** 0.0
43380 H 85.8702 68.4609 48.3571 H 0.0 **** 0.0
43381 H 87.7227 69.0591 46.687 H 0.0 **** 0.0
43382 H 87.5018 67.2789 47.1764 H 0.0 **** 0.0
43383 H 90.0086 68.2542 47.0556 H 0.0 **** 0.0
43384 H 89.4973 67.1079 48.3068 H 0.0 **** 0.0
43385 H 100.114 73.3771 42.5713 H 0.0 **** 0.0
43386 H 97.9138 72.7285 43.3119 H 0.0 **** 0.0
43387 H 97.1643 74.1748 42.554 H 0.0 **** 0.0
43388 H 98.2427 74.287 44.0709 H 0.0 **** 0.0
43389 H 99.9833 73.2568 40.1947 H 0.0 **** 0.0
43390 H 98.2082 73.8786 40.2241 H 0.0 **** 0.0
43391 H 98.5926 72.2882 40.7734 H 0.0 **** 0.0
43392 H 92.8377 75.4655 45.5288 H 0.0 **** 0.0
43393 H 92.1398 65.9952 55.0909 H 0.0 **** 0.0
43394 H 90.8964 66.2185 57.2081 H 0.0 **** 0.0
43395 H 88.6544 66.4121 58.3987 H 0.0 **** 0.0
43396 H 86.4018 65.9483 59.439 H 0.0 **** 0.0
43397 H 83.9325 65.88 59.099 H 0.0 **** 0.0
43398 H 80.8181 66.9338 55.7727 H 0.0 **** 0.0
43399 H 81.9228 66.0977 57.7467 H 0.0 **** 0.0
43400 H 84.6561 68.7559 50.2806 H 0.0 **** 0.0
43401 H 82.7696 70.1183 53.021 H 0.0 **** 0.0
43402 H 82.0307 69.9722 51.4057 H 0.0 **** 0.0
43403 H 80.078 70.5056 52.6126 H 0.0 **** 0.0
43404 H 80.7544 69.7543 54.1305 H 0.0 **** 0.0
43405 H 79.5904 68.2679 51.6838 H 0.0 **** 0.0
43406 H 78.9423 68.3984 53.3721 H 0.0 **** 0.0
43407 C 73.7896 23.7143 53.3723 C 0.0 **** 0.0
43408 C 73.8497 22.7784 54.6033 C 0.0 **** 0.0
43409 C 72.5318 22.7012 55.4212 C 0.0 **** 0.0
43410 C 71.7348 24.0366 55.5164 C 0.0 **** 0.0
43411 C 72.1255 25.0136 54.3456 C 0.0 **** 0.0
43412 O 72.5048 24.3193 53.1622 O 0.0 **** 0.0
43413 C 71.8632 24.6948 56.929 C 0.0 **** 0.0
43414 C 73.2006 24.3496 57.6479 C 0.0 **** 0.0
43415 C 73.4577 22.8416 57.8329 C 0.0 **** 0.0
43416 C 72.7381 21.9373 56.774 C 0.0 **** 0.0
43417 O 73.3631 24.9733 58.9307 O 0.0 **** 0.0
43418 C 72.1837 25.211 59.7223 C 0.0 **** 0.0
43419 C 70.9664 24.3187 59.3751 C 0.0 **** 0.0
43420 C 70.6438 24.3306 57.8407 C 0.0 **** 0.0
43421 C 69.7891 24.732 60.2221 C 0.0 **** 0.0
43422 C 69.411 26.1238 60.2757 C 0.0 **** 0.0
43423 C 70.618 27.0561 60.5594 C 0.0 **** 0.0
43424 C 71.8396 26.7547 59.6654 C 0.0 **** 0.0
43425 C 70.1882 28.5656 60.4705 C 0.0 **** 0.0
43426 C 69.0608 28.8335 61.4511 C 0.0 **** 0.0
43427 C 67.8996 27.8719 61.388 C 0.0 **** 0.0
43428 C 68.3595 26.3802 61.3669 C 0.0 **** 0.0
43429 C 67.2344 25.3706 61.3427 C 0.0 **** 0.0
43430 C 67.7976 23.9657 61.6169 C 0.0 **** 0.0
43431 C 69.0266 23.734 60.8206 C 0.0 **** 0.0
43432 O 66.9928 28.1 62.4634 O 0.0 **** 0.0
43433 C 66.4124 29.3424 62.2454 C 0.0 **** 0.0
43434 C 67.4653 30.4289 62.4731 C 0.0 **** 0.0
43435 C 68.5343 30.2862 61.3773 C 0.0 **** 0.0
43436 C 72.9397 27.7102 60.0649 C 0.0 **** 0.0
43437 C 72.5231 29.1472 59.8058 C 0.0 **** 0.0
43438 C 71.3961 29.5507 60.762 C 0.0 **** 0.0
43439 C 73.7119 30.0608 59.7916 C 0.0 **** 0.0
43440 C 74.7749 29.7608 60.5657 C 0.0 **** 0.0
43441 C 74.8531 28.4631 61.3949 C 0.0 **** 0.0
43442 C 73.901 27.3963 60.9166 C 0.0 **** 0.0
43443 C 75.8892 30.7809 60.7457 C 0.0 **** 0.0
43444 C 75.3696 32.1732 60.4858 C 0.0 **** 0.0
43445 C 74.7435 32.1897 59.1353 C 0.0 **** 0.0
43446 C 73.819 31.2356 58.8731 C 0.0 **** 0.0
43447 C 73.0185 31.3614 57.5809 C 0.0 **** 0.0
43448 C 73.9178 31.8784 56.4617 C 0.0 **** 0.0
43449 C 74.476 33.2429 56.8148 C 0.0 **** 0.0
43450 C 75.2473 33.242 58.1463 C 0.0 **** 0.0
43451 C 69.7251 31.2652 61.5267 C 0.0 **** 0.0
43452 C 70.8847 30.9806 60.5411 C 0.0 **** 0.0
43453 C 66.8141 31.8523 62.5374 C 0.0 **** 0.0
43454 C 67.8702 32.904 62.8333 C 0.0 **** 0.0
43455 S 69.0795 33.0176 61.4289 S 0.0 **** 0.0
43456 C 67.2681 34.2903 63.1471 C 0.0 **** 0.0
43457 C 66.0714 34.275 64.0973 C 0.0 **** 0.0
43458 C 65.0521 33.2637 63.6715 C 0.0 **** 0.0
43459 C 65.639 31.8699 63.5286 C 0.0 **** 0.0
43460 C 63.7955 33.3 64.5336 C 0.0 **** 0.0
43461 C 63.2127 34.6606 64.705 C 0.0 **** 0.0
43462 C 64.2017 35.8135 64.9549 C 0.0 **** 0.0
43463 C 65.4183 35.635 64.0377 C 0.0 **** 0.0
43464 C 64.3139 36.1495 66.4831 C 0.0 **** 0.0
43465 C 62.9298 36.6869 66.7978 C 0.0 **** 0.0
43466 C 61.8452 35.5486 66.8159 C 0.0 **** 0.0
43467 C 61.8988 34.687 65.5522 C 0.0 **** 0.0
43468 C 64.5543 30.8386 63.0255 C 0.0 **** 0.0
43469 C 65.1944 29.4522 63.1462 C 0.0 **** 0.0
43470 C 62.6986 32.3797 63.9417 C 0.0 **** 0.0
43471 C 63.2072 30.9617 63.772 C 0.0 **** 0.0
43472 C 61.2245 33.3351 65.897 C 0.0 **** 0.0
43473 C 61.3316 32.3695 64.6794 C 0.0 **** 0.0
43474 C 60.3209 35.8867 66.911 C 0.0 **** 0.0
43475 C 59.5449 34.6263 67.2594 C 0.0 **** 0.0
43476 C 59.7456 33.5855 66.176 C 0.0 **** 0.0
43477 O 62.9602 37.5157 67.9761 O 0.0 **** 0.0
43478 C 63.5914 38.7453 67.7017 C 0.0 **** 0.0
43479 C 64.8885 38.6229 66.8123 C 0.0 **** 0.0
43480 C 65.3671 37.1599 66.8992 C 0.0 **** 0.0
43481 C 65.9969 39.6516 67.1929 C 0.0 **** 0.0
43482 C 65.398 41.0198 67.5817 C 0.0 **** 0.0
43483 C 64.5898 40.9311 68.8462 C 0.0 **** 0.0
43484 C 63.8661 39.5673 69.026 C 0.0 **** 0.0
43485 C 62.5723 39.7397 69.8469 C 0.0 **** 0.0
43486 C 62.7011 40.8104 70.9365 C 0.0 **** 0.0
43487 C 63.0837 42.1606 70.3236 C 0.0 **** 0.0
43488 N 63.7133 42.0908 68.9977 N 0.0 **** 0.0
43489 C 62.0962 30.1289 63.0709 C 0.0 **** 0.0
43490 C 60.9592 29.8274 64.0901 C 0.0 **** 0.0
43491 C 60.6678 31.0055 65.0818 C 0.0 **** 0.0
43492 O 59.8079 29.2973 63.4343 O 0.0 **** 0.0
43493 C 60.1264 28.7125 62.1749 C 0.0 **** 0.0
43494 C 60.7026 29.7917 61.2148 C 0.0 **** 0.0
43495 O 61.557 30.7128 61.9051 O 0.0 **** 0.0
43496 C 59.5835 30.585 60.52 C 0.0 **** 0.0
43497 C 58.4998 29.6159 59.9123 C 0.0 **** 0.0
43498 C 57.9399 28.6835 60.9034 C 0.0 **** 0.0
43499 C 59.0326 27.8661 61.605 C 0.0 **** 0.0
43500 C 58.9893 32.2436 66.4475 C 0.0 **** 0.0
43501 C 59.1893 31.1998 65.3411 C 0.0 **** 0.0
43502 C 58.0632 34.9377 67.3116 C 0.0 **** 0.0
43503 C 57.2259 33.6531 67.6745 C 0.0 **** 0.0
43504 C 57.5029 32.5543 66.6155 C 0.0 **** 0.0
43505 C 57.7685 35.9773 68.3682 C 0.0 **** 0.0
43506 C 58.52 37.3017 68.0867 C 0.0 **** 0.0
43507 C 60.0315 37.0616 67.865 C 0.0 **** 0.0
43508 O 55.8726 33.9974 67.6299 O 0.0 **** 0.0
43509 C 55.5491 34.9222 68.6844 C 0.0 **** 0.0
43510 C 56.2852 36.2547 68.3728 C 0.0 **** 0.0
43511 C 58.2865 38.3415 69.1928 C 0.0 **** 0.0
43512 C 56.9493 38.1852 69.9735 C 0.0 **** 0.0
43513 C 55.8189 37.4745 69.148 C 0.0 **** 0.0
43514 C 56.3599 39.5221 70.5141 C 0.0 **** 0.0
43515 C 57.4783 40.4495 70.9807 C 0.0 **** 0.0
43516 C 58.3978 40.8142 69.8096 C 0.0 **** 0.0
43517 C 58.4011 39.7674 68.6476 C 0.0 **** 0.0
43518 C 54.6516 37.1265 70.102 C 0.0 **** 0.0
43519 C 53.5543 36.3841 69.4028 C 0.0 **** 0.0
43520 C 54.0112 35.1342 68.5994 C 0.0 **** 0.0
43521 C 55.3142 39.1054 71.5915 C 0.0 **** 0.0
43522 C 54.1559 38.3524 70.8788 C 0.0 **** 0.0
43523 C 73.1736 31.9214 55.0417 C 0.0 **** 0.0
43524 C 72.5624 33.2805 54.5803 C 0.0 **** 0.0
43525 C 74.1598 31.4382 54.0023 C 0.0 **** 0.0
43526 O 66.5679 37.0934 66.1901 O 0.0 **** 0.0
43527 C 53.2295 33.837 68.9061 C 0.0 **** 0.0
43528 C 51.7263 34.1196 68.8799 C 0.0 **** 0.0
43529 C 51.315 35.3013 69.785 C 0.0 **** 0.0
43530 C 52.5238 35.9859 70.4622 C 0.0 **** 0.0
43531 C 52.0466 37.1332 71.3639 C 0.0 **** 0.0
43532 C 51.2569 36.5415 72.5606 C 0.0 **** 0.0
43533 C 50.3978 35.3082 72.1912 C 0.0 **** 0.0
43534 C 50.0898 35.0891 70.7058 C 0.0 **** 0.0
43535 C 49.1545 35.2165 73.0905 C 0.0 **** 0.0
43536 C 49.4102 35.7815 74.4997 C 0.0 **** 0.0
43537 C 49.5877 37.2925 74.4447 C 0.0 **** 0.0
43538 C 50.5871 37.6785 73.3377 C 0.0 **** 0.0
43539 C 51.6446 38.6449 73.8513 C 0.0 **** 0.0
43540 C 52.6308 39.1226 72.7426 C 0.0 **** 0.0
43541 C 53.2116 37.9076 71.9629 C 0.0 **** 0.0
43542 C 50.9321 39.8159 74.5484 C 0.0 **** 0.0
43543 C 50.206 39.3937 75.8233 C 0.0 **** 0.0
43544 C 49.867 37.8914 75.8582 C 0.0 **** 0.0
43545 C 54.8103 40.2735 72.4435 C 0.0 **** 0.0
43546 C 53.8106 39.7448 73.4314 C 0.0 **** 0.0
43547 C 51.826 41.0593 74.6463 C 0.0 **** 0.0
43548 C 53.3716 40.8419 74.4628 C 0.0 **** 0.0
43549 C 54.2649 41.039 75.6939 C 0.0 **** 0.0
43550 C 53.4731 41.1609 77.0348 C 0.0 **** 0.0
43551 C 52.4546 42.2727 76.8988 C 0.0 **** 0.0
43552 C 51.5106 42.0088 75.7939 C 0.0 **** 0.0
43553 O 50.4946 42.6433 75.7817 O 0.0 **** 0.0
43554 H 74.0561 23.1179 52.5115 H 0.0 **** 0.0
43555 H 74.5099 24.5574 53.3607 H 0.0 **** 0.0
43556 H 74.0165 21.773 54.1966 H 0.0 **** 0.0
43557 H 74.7371 23.0509 55.235 H 0.0 **** 0.0
43558 H 71.8725 22.0095 54.8304 H 0.0 **** 0.0
43559 H 70.6418 23.8039 55.3767 H 0.0 **** 0.0
43560 H 72.9924 25.7246 54.6221 H 0.0 **** 0.0
43561 H 71.2671 25.611 54.1174 H 0.0 **** 0.0
43562 H 71.8274 25.7996 56.767 H 0.0 **** 0.0
43563 H 73.9708 24.8252 56.9599 H 0.0 **** 0.0
43564 H 73.2359 22.5199 58.8704 H 0.0 **** 0.0
43565 H 74.5526 22.6996 57.6534 H 0.0 **** 0.0
43566 H 71.7995 21.6253 57.2149 H 0.0 **** 0.0
43567 H 73.3695 21.0281 56.5796 H 0.0 **** 0.0
43568 H 72.4114 24.917 60.7086 H 0.0 **** 0.0
43569 H 71.2284 23.2959 59.7121 H 0.0 **** 0.0
43570 H 69.8512 25.041 57.6473 H 0.0 **** 0.0
43571 H 70.2597 23.3451 57.5746 H 0.0 **** 0.0
43572 H 71.5709 26.9622 58.6357 H 0.0 **** 0.0
43573 H 66.4754 25.6351 62.1096 H 0.0 **** 0.0
43574 H 66.6815 25.2955 60.3924 H 0.0 **** 0.0
43575 H 67.0351 23.179 61.409 H 0.0 **** 0.0
43576 H 68.0878 23.906 62.686 H 0.0 **** 0.0
43577 H 69.3813 22.6964 60.7915 H 0.0 **** 0.0
43578 H 72.1081 29.1026 58.7907 H 0.0 **** 0.0
43579 H 74.7093 28.691 62.5183 H 0.0 **** 0.0
43580 H 75.899 28.0507 61.2658 H 0.0 **** 0.0
43581 H 74.0629 26.4164 61.2708 H 0.0 **** 0.0
43582 H 76.3518 30.6912 61.7764 H 0.0 **** 0.0
43583 H 76.6627 30.5524 59.9914 H 0.0 **** 0.0
43584 H 76.2185 32.8913 60.6286 H 0.0 **** 0.0
43585 H 74.6043 32.4427 61.2086 H 0.0 **** 0.0
43586 H 72.6697 30.3667 57.2284 H 0.0 **** 0.0
43587 H 72.1744 32.0633 57.7853 H 0.0 **** 0.0
43588 H 74.7334 31.1361 56.3805 H 0.0 **** 0.0
43589 H 73.6257 33.9382 56.958 H 0.0 **** 0.0
43590 H 75.0897 33.6424 55.9566 H 0.0 **** 0.0
43591 H 75.1737 34.2885 58.5228 H 0.0 **** 0.0
43592 H 76.3241 33.1202 57.923 H 0.0 **** 0.0
43593 H 71.6714 31.7501 60.6261 H 0.0 **** 0.0
43594 H 68.0765 34.8506 63.5983 H 0.0 **** 0.0
43595 H 66.1104 36.5262 64.039 H 0.0 **** 0.0
43596 H 64.4522 28.6136 62.9867 H 0.0 **** 0.0
43597 H 62.8752 39.3269 67.0929 H 0.0 **** 0.0
43598 H 64.5877 38.8679 65.7777 H 0.0 **** 0.0
43599 H 65.5252 36.9149 67.9718 H 0.0 **** 0.0
43600 H 66.4941 39.1869 68.066 H 0.0 **** 0.0
43601 H 66.6726 39.7727 66.2507 H 0.0 **** 0.0
43602 H 64.9075 41.3846 66.6934 H 0.0 **** 0.0
43603 H 66.2627 41.7432 67.7268 H 0.0 **** 0.0
43604 H 65.3152 40.9881 69.696 H 0.0 **** 0.0
43605 H 64.5311 38.9113 69.6219 H 0.0 **** 0.0
43606 H 61.681 40.096 69.2251 H 0.0 **** 0.0
43607 H 62.2555 38.7863 70.3007 H 0.0 **** 0.0
43608 H 63.522 40.5333 71.6577 H 0.0 **** 0.0
43609 H 61.7761 40.9113 71.551 H 0.0 **** 0.0
43610 H 63.8367 42.6742 71.0208 H 0.0 **** 0.0
43611 H 62.1359 42.7544 70.2547 H 0.0 **** 0.0
43612 H 62.9262 42.0548 68.2823 H 0.0 **** 0.0
43613 H 60.9433 27.9954 62.3759 H 0.0 **** 0.0
43614 H 61.2693 29.2682 60.3866 H 0.0 **** 0.0
43615 H 59.0808 31.2898 61.2402 H 0.0 **** 0.0
43616 H 60.0136 31.2112 59.6979 H 0.0 **** 0.0
43617 H 58.8811 29.098 58.9992 H 0.0 **** 0.0
43618 H 57.6415 30.2656 59.5223 H 0.0 **** 0.0
43619 H 57.1952 28.019 60.448 H 0.0 **** 0.0
43620 H 57.4005 29.2422 61.7024 H 0.0 **** 0.0
43621 H 59.4401 27.1744 60.8212 H 0.0 **** 0.0
43622 H 58.5788 27.2804 62.4338 H 0.0 **** 0.0
43623 H 58.6932 30.272 65.6444 H 0.0 **** 0.0
43624 H 56.9011 31.6608 66.9256 H 0.0 **** 0.0
43625 H 60.4772 37.9475 67.4055 H 0.0 **** 0.0
43626 H 59.1265 38.1847 69.9708 H 0.0 **** 0.0
43627 H 57.1374 37.5004 70.8019 H 0.0 **** 0.0
43628 H 55.8258 40.0401 69.676 H 0.0 **** 0.0
43629 H 58.1159 39.9743 71.7725 H 0.0 **** 0.0
43630 H 57.0945 41.3698 71.4867 H 0.0 **** 0.0
43631 H 59.4396 40.934 70.2112 H 0.0 **** 0.0
43632 H 58.0775 41.777 69.3663 H 0.0 **** 0.0
43633 H 59.3483 39.901 68.0664 H 0.0 **** 0.0
43634 H 57.5786 39.9504 67.9273 H 0.0 **** 0.0
43635 H 72.3649 31.1486 55.0635 H 0.0 **** 0.0
43636 H 71.8951 33.1149 53.736 H 0.0 **** 0.0
43637 H 73.2669 34.0243 54.317 H 0.0 **** 0.0
43638 H 71.9535 33.7126 55.3646 H 0.0 **** 0.0
43639 H 74.3722 30.3852 54.0632 H 0.0 **** 0.0
43640 H 75.1141 31.9871 54.0676 H 0.0 **** 0.0
43641 H 73.7882 31.5426 52.9726 H 0.0 **** 0.0
43642 H 67.2615 36.7597 66.7605 H 0.0 **** 0.0
43643 H 53.4778 32.9383 68.2661 H 0.0 **** 0.0
43644 H 51.319 34.235 67.8696 H 0.0 **** 0.0
43645 H 49.4569 34.1595 70.5376 H 0.0 **** 0.0
43646 H 48.7897 34.1254 73.2253 H 0.0 **** 0.0
43647 H 48.4736 35.6193 75.0523 H 0.0 **** 0.0
43648 H 50.8326 39.6242 76.7254 H 0.0 **** 0.0
43649 H 48.9747 37.6624 76.5106 H 0.0 **** 0.0
43650 H 55.6215 40.7981 72.9634 H 0.0 **** 0.0
43651 H 54.998 40.214 75.8004 H 0.0 **** 0.0
43652 H 54.829 41.9085 75.5878 H 0.0 **** 0.0
43653 H 54.1691 41.341 77.8811 H 0.0 **** 0.0
43654 H 52.9701 40.1964 77.2225 H 0.0 **** 0.0
43655 H 52.998 43.2032 76.691 H 0.0 **** 0.0
43656 H 51.8477 42.327 77.8194 H 0.0 **** 0.0
43657 C 91.036 34.3796 57.589 C 0.0 **** 0.0
43658 C 90.4516 35.0991 58.8115 C 0.0 **** 0.0
43659 C 88.9358 34.938 58.8323 C 0.0 **** 0.0
43660 C 88.3211 35.3248 57.4933 C 0.0 **** 0.0
43661 C 89.068 34.5811 56.339 C 0.0 **** 0.0
43662 O 90.0497 33.6648 56.8748 O 0.0 **** 0.0
43663 C 88.4241 36.8862 57.2495 C 0.0 **** 0.0
43664 C 88.2148 37.7626 58.5375 C 0.0 **** 0.0
43665 C 87.4547 36.9669 59.5718 C 0.0 **** 0.0
43666 C 88.2169 35.6719 60.0246 C 0.0 **** 0.0
43667 O 87.5933 39.026 58.2899 O 0.0 **** 0.0
43668 C 88.0386 39.6284 57.0542 C 0.0 **** 0.0
43669 C 87.5555 38.7943 55.8255 C 0.0 **** 0.0
43670 C 87.4231 37.2733 56.1406 C 0.0 **** 0.0
43671 C 88.4325 38.9396 54.6038 C 0.0 **** 0.0
43672 C 89.8509 39.1314 54.7175 C 0.0 **** 0.0
43673 C 90.1622 40.3061 55.6976 C 0.0 **** 0.0
43674 C 89.575 39.9268 57.1086 C 0.0 **** 0.0
43675 C 91.7007 40.4972 55.7971 C 0.0 **** 0.0
43676 C 92.3801 40.7464 54.4657 C 0.0 **** 0.0
43677 C 92.0727 39.5536 53.5795 C 0.0 **** 0.0
43678 C 90.5507 39.4029 53.381 C 0.0 **** 0.0
43679 C 90.2013 38.2656 52.3702 C 0.0 **** 0.0
43680 C 88.7095 38.192 52.1692 C 0.0 **** 0.0
43681 C 87.8881 38.5832 53.3879 C 0.0 **** 0.0
43682 O 92.7655 39.5538 52.3214 O 0.0 **** 0.0
43683 C 93.3986 40.8009 52.0687 C 0.0 **** 0.0
43684 C 94.437 41.1249 53.1768 C 0.0 **** 0.0
43685 C 93.8458 41.0394 54.5934 C 0.0 **** 0.0
43686 C 90.06 40.9946 58.1631 C 0.0 **** 0.0
43687 C 91.5856 41.0433 58.3316 C 0.0 **** 0.0
43688 C 92.0962 41.5277 56.918 C 0.0 **** 0.0
43689 C 92.0243 41.8254 59.5897 C 0.0 **** 0.0
43690 C 91.1414 42.5839 60.3025 C 0.0 **** 0.0
43691 C 89.7105 42.6363 60.0191 C 0.0 **** 0.0
43692 C 89.2285 41.7349 58.9376 C 0.0 **** 0.0
43693 C 91.5824 43.3472 61.5731 C 0.0 **** 0.0
43694 C 93.0899 43.6858 61.5639 C 0.0 **** 0.0
43695 C 93.9027 42.4917 61.1503 C 0.0 **** 0.0
43696 C 93.4123 41.6428 60.1883 C 0.0 **** 0.0
43697 C 94.183 40.3712 59.8189 C 0.0 **** 0.0
43698 C 95.3599 40.0408 60.8046 C 0.0 **** 0.0
43699 C 96.1221 41.3284 61.1556 C 0.0 **** 0.0
43700 C 95.2366 42.342 61.798 C 0.0 **** 0.0
43701 C 93.9466 42.3566 55.4221 C 0.0 **** 0.0
43702 C 93.5266 41.9307 56.8351 C 0.0 **** 0.0
43703 C 95.316 42.3388 52.8547 C 0.0 **** 0.0
43704 C 96.3761 42.5473 53.9977 C 0.0 **** 0.0
43705 S 95.5681 43.2063 55.537 S 0.0 **** 0.0
43706 C 97.4363 43.5845 53.5219 C 0.0 **** 0.0
43707 C 97.9989 43.3374 52.1263 C 0.0 **** 0.0
43708 C 96.8514 43.2791 51.0735 C 0.0 **** 0.0
43709 C 95.9284 42.1219 51.4593 C 0.0 **** 0.0
43710 C 97.5399 42.872 49.7546 C 0.0 **** 0.0
43711 C 98.7144 43.7279 49.2981 C 0.0 **** 0.0
43712 C 99.7756 43.7535 50.3892 C 0.0 **** 0.0
43713 C 99.1326 44.2817 51.7118 C 0.0 **** 0.0
43714 C 101.023 44.5327 50.0516 C 0.0 **** 0.0
43715 C 101.505 44.3668 48.6226 C 0.0 **** 0.0
43716 C 100.35 44.3619 47.6071 C 0.0 **** 0.0
43717 C 99.2878 43.3699 47.9621 C 0.0 **** 0.0
43718 C 94.7379 42.0925 50.4738 C 0.0 **** 0.0
43719 C 93.9858 40.768 50.7042 C 0.0 **** 0.0
43720 C 96.4815 42.5653 48.6329 C 0.0 **** 0.0
43721 C 95.0005 42.6398 49.045 C 0.0 **** 0.0
43722 C 98.2296 43.0895 46.862 C 0.0 **** 0.0
43723 C 96.7513 43.2633 47.3057 C 0.0 **** 0.0
43724 C 100.904 44.2003 46.1935 C 0.0 **** 0.0
43725 C 99.9145 43.7951 45.1115 C 0.0 **** 0.0
43726 C 98.4362 43.8731 45.5702 C 0.0 **** 0.0
43727 O 102.352 45.4925 48.4347 O 0.0 **** 0.0
43728 C 103.624 45.3073 49.0616 C 0.0 **** 0.0
43729 C 103.53 44.4689 50.4381 C 0.0 **** 0.0
43730 C 102.15 44.4028 51.0534 C 0.0 **** 0.0
43731 C 104.591 44.8723 51.4729 C 0.0 **** 0.0
43732 C 105.886 45.2215 50.7756 C 0.0 **** 0.0
43733 C 105.768 46.4346 49.8808 C 0.0 **** 0.0
43734 C 104.33 46.6505 49.2587 C 0.0 **** 0.0
43735 C 104.453 47.4589 47.9568 C 0.0 **** 0.0
43736 C 105.583 48.4108 47.8815 C 0.0 **** 0.0
43737 C 106.94 47.767 48.189 C 0.0 **** 0.0
43738 N 106.838 46.4387 48.8785 N 0.0 **** 0.0
43739 C 94.13 41.9975 47.9631 C 0.0 **** 0.0
43740 C 94.4119 42.5725 46.5632 C 0.0 **** 0.0
43741 C 95.8913 42.5952 46.2356 C 0.0 **** 0.0
43742 O 93.7796 41.7195 45.6824 O 0.0 **** 0.0
43743 C 92.4072 41.9252 45.7511 C 0.0 **** 0.0
43744 C 91.9017 41.6992 47.2264 C 0.0 **** 0.0
43745 O 92.7665 42.3227 48.2152 O 0.0 **** 0.0
43746 C 91.6146 40.2177 47.5083 C 0.0 **** 0.0
43747 C 90.3948 39.7824 46.649 C 0.0 **** 0.0
43748 C 90.3139 40.4393 45.2239 C 0.0 **** 0.0
43749 C 91.7444 40.9276 44.7665 C 0.0 **** 0.0
43750 C 97.5586 43.3393 44.4693 C 0.0 **** 0.0
43751 C 96.073 43.4071 44.9373 C 0.0 **** 0.0
43752 C 100.101 44.6198 43.8269 C 0.0 **** 0.0
43753 C 99.1654 44.2026 42.7091 C 0.0 **** 0.0
43754 C 97.704 44.1704 43.183 C 0.0 **** 0.0
43755 C 101.553 44.5873 43.3242 C 0.0 **** 0.0
43756 C 102.5 44.9809 44.429 C 0.0 **** 0.0
43757 C 101.837 45.3505 45.7763 C 0.0 **** 0.0
43758 O 99.3234 45.0894 41.6123 O 0.0 **** 0.0
43759 C 100.666 44.9801 41.164 C 0.0 **** 0.0
43760 C 101.558 45.6 42.2356 C 0.0 **** 0.0
43761 C 103.87 45.6131 44.1435 C 0.0 **** 0.0
43762 C 103.875 46.4286 42.8441 C 0.0 **** 0.0
43763 C 102.922 45.9368 41.7558 C 0.0 **** 0.0
43764 C 105.259 46.3921 42.1574 C 0.0 **** 0.0
43765 C 106.428 46.4761 43.197 C 0.0 **** 0.0
43766 C 106.373 45.2826 44.1424 C 0.0 **** 0.0
43767 C 105.031 44.5825 44.2933 C 0.0 **** 0.0
43768 C 102.782 47.0582 40.6912 C 0.0 **** 0.0
43769 C 101.591 46.8834 39.7115 C 0.0 **** 0.0
43770 C 100.945 45.4904 39.7019 C 0.0 **** 0.0
43771 C 105.302 47.4374 41.0105 C 0.0 **** 0.0
43772 C 104.133 47.3343 40.0212 C 0.0 **** 0.0
43773 C 96.3126 38.9194 60.2633 C 0.0 **** 0.0
43774 C 97.2249 39.3326 59.1102 C 0.0 **** 0.0
43775 C 97.1574 38.2831 61.3664 C 0.0 **** 0.0
43776 O 102.061 43.1833 51.7666 O 0.0 **** 0.0
43777 C 101.783 44.4482 38.9555 C 0.0 **** 0.0
43778 C 101.962 44.9113 37.4839 C 0.0 **** 0.0
43779 C 102.575 46.3128 37.4674 C 0.0 **** 0.0
43780 C 101.843 47.3705 38.3011 C 0.0 **** 0.0
43781 C 102.705 48.6562 38.3248 C 0.0 **** 0.0
43782 C 102.811 49.37 36.9342 C 0.0 **** 0.0
43783 C 102.704 48.3351 35.7363 C 0.0 **** 0.0
43784 C 102.721 46.8025 36.0156 C 0.0 **** 0.0
43785 C 103.391 48.7711 34.4373 C 0.0 **** 0.0
43786 C 103.425 50.2788 34.3111 C 0.0 **** 0.0
43787 C 104.215 50.9594 35.4941 C 0.0 **** 0.0
43788 C 104.136 50.0887 36.7646 C 0.0 **** 0.0
43789 C 104.816 50.7116 38.0268 C 0.0 **** 0.0
43790 C 104.718 49.7549 39.239 C 0.0 **** 0.0
43791 C 104.129 48.3727 38.8786 C 0.0 **** 0.0
43792 C 106.282 50.9705 37.5804 C 0.0 **** 0.0
43793 C 106.304 51.9565 36.4352 C 0.0 **** 0.0
43794 C 105.688 51.3089 35.2509 C 0.0 **** 0.0
43795 C 105.672 48.9009 41.3149 C 0.0 **** 0.0
43796 C 106.015 49.6092 40.026 C 0.0 **** 0.0
43797 C 107.2 51.4427 38.7721 C 0.0 **** 0.0
43798 C 106.76 50.9242 40.1688 C 0.0 **** 0.0
43799 C 107.897 50.8627 41.1874 C 0.0 **** 0.0
43800 C 108.964 51.8871 40.9222 C 0.0 **** 0.0
43801 C 109.681 51.4972 39.5949 C 0.0 **** 0.0
43802 C 108.695 51.3176 38.4681 C 0.0 **** 0.0
43803 O 109.092 50.9495 37.3601 O 0.0 **** 0.0
43804 H 91.8244 33.6343 57.8946 H 0.0 **** 0.0
43805 H 91.5646 35.115 56.9135 H 0.0 **** 0.0
43806 H 90.8865 34.6331 59.7016 H 0.0 **** 0.0
43807 H 90.7217 36.1986 58.8257 H 0.0 **** 0.0
43808 H 88.8407 33.8455 59.0246 H 0.0 **** 0.0
43809 H 87.2267 34.9787 57.5002 H 0.0 **** 0.0
43810 H 89.5936 35.2097 55.584 H 0.0 **** 0.0
43811 H 88.3817 34.0145 55.7066 H 0.0 **** 0.0
43812 H 89.4103 37.0761 56.8706 H 0.0 **** 0.0
43813 H 89.2141 37.9419 58.9793 H 0.0 **** 0.0
43814 H 86.4887 36.6967 59.2507 H 0.0 **** 0.0
43815 H 87.3308 37.602 60.4723 H 0.0 **** 0.0
43816 H 87.5007 34.9659 60.402 H 0.0 **** 0.0
43817 H 88.8975 35.8742 60.8841 H 0.0 **** 0.0
43818 H 87.4645 40.6073 56.9519 H 0.0 **** 0.0
43819 H 86.5292 39.1546 55.5386 H 0.0 **** 0.0
43820 H 87.6352 36.6072 55.2365 H 0.0 **** 0.0
43821 H 86.4051 37.0866 56.4803 H 0.0 **** 0.0
43822 H 90.1587 38.9715 57.3498 H 0.0 **** 0.0
43823 H 90.7037 38.485 51.3961 H 0.0 **** 0.0
43824 H 90.5895 37.3029 52.7226 H 0.0 **** 0.0
43825 H 88.4142 37.1796 51.8432 H 0.0 **** 0.0
43826 H 88.4996 38.8801 51.3573 H 0.0 **** 0.0
43827 H 86.8176 38.4297 53.3691 H 0.0 **** 0.0
43828 H 91.8969 39.9845 58.5131 H 0.0 **** 0.0
43829 H 89.5262 43.6922 59.7246 H 0.0 **** 0.0
43830 H 89.1113 42.5069 60.9545 H 0.0 **** 0.0
43831 H 88.1473 41.7874 58.7595 H 0.0 **** 0.0
43832 H 90.9373 44.2161 61.7622 H 0.0 **** 0.0
43833 H 91.4417 42.697 62.4631 H 0.0 **** 0.0
43834 H 93.3711 43.9993 62.6055 H 0.0 **** 0.0
43835 H 93.2333 44.4823 60.8038 H 0.0 **** 0.0
43836 H 93.5254 39.4566 59.862 H 0.0 **** 0.0
43837 H 94.6719 40.4273 58.8032 H 0.0 **** 0.0
43838 H 94.9025 39.6623 61.7498 H 0.0 **** 0.0
43839 H 96.5568 41.765 60.2124 H 0.0 **** 0.0
43840 H 96.9273 41.0882 61.8299 H 0.0 **** 0.0
43841 H 95.7743 43.3212 61.7871 H 0.0 **** 0.0
43842 H 94.9919 42.0545 62.828 H 0.0 **** 0.0
43843 H 93.8143 42.6981 57.6051 H 0.0 **** 0.0
43844 H 98.2421 43.6809 54.3254 H 0.0 **** 0.0
43845 H 99.8301 44.377 52.5834 H 0.0 **** 0.0
43846 H 93.1959 40.5372 49.9566 H 0.0 **** 0.0
43847 H 104.187 44.6677 48.3408 H 0.0 **** 0.0
43848 H 103.791 43.4849 50.0507 H 0.0 **** 0.0
43849 H 102.074 45.2972 51.7213 H 0.0 **** 0.0
43850 H 104.232 45.7052 52.0646 H 0.0 **** 0.0
43851 H 104.703 43.9652 52.2011 H 0.0 **** 0.0
43852 H 106.24 44.3345 50.2094 H 0.0 **** 0.0
43853 H 106.588 45.4668 51.6453 H 0.0 **** 0.0
43854 H 105.885 47.3256 50.5471 H 0.0 **** 0.0
43855 H 103.739 47.2812 49.9026 H 0.0 **** 0.0
43856 H 104.58 46.749 47.0801 H 0.0 **** 0.0
43857 H 103.494 48.0612 47.8449 H 0.0 **** 0.0
43858 H 105.462 49.1644 48.6792 H 0.0 **** 0.0
43859 H 105.631 48.9412 46.9116 H 0.0 **** 0.0
43860 H 107.625 48.3941 48.8565 H 0.0 **** 0.0
43861 H 107.469 47.6065 47.2372 H 0.0 **** 0.0
43862 H 106.58 45.6727 48.1619 H 0.0 **** 0.0
43863 H 92.1585 42.9376 45.4046 H 0.0 **** 0.0
43864 H 90.9059 42.215 47.2718 H 0.0 **** 0.0
43865 H 92.4972 39.5245 47.347 H 0.0 **** 0.0
43866 H 91.3206 40.0209 48.5339 H 0.0 **** 0.0
43867 H 89.4143 40.06 47.1807 H 0.0 **** 0.0
43868 H 90.4476 38.701 46.5719 H 0.0 **** 0.0
43869 H 89.6557 41.3629 45.2056 H 0.0 **** 0.0
43870 H 89.9397 39.6635 44.4881 H 0.0 **** 0.0
43871 H 91.6427 41.4148 43.7385 H 0.0 **** 0.0
43872 H 92.4159 40.0269 44.6374 H 0.0 **** 0.0
43873 H 95.3736 43.0221 44.1389 H 0.0 **** 0.0
43874 H 97.1058 43.6654 42.3875 H 0.0 **** 0.0
43875 H 101.245 46.302 45.6394 H 0.0 **** 0.0
43876 H 104.053 46.3283 44.9681 H 0.0 **** 0.0
43877 H 103.601 47.4483 43.1337 H 0.0 **** 0.0
43878 H 105.395 45.4801 41.6402 H 0.0 **** 0.0
43879 H 106.313 47.3932 43.824 H 0.0 **** 0.0
43880 H 107.382 46.4942 42.6503 H 0.0 **** 0.0
43881 H 106.734 45.6279 45.1426 H 0.0 **** 0.0
43882 H 107.102 44.5345 43.852 H 0.0 **** 0.0
43883 H 105.073 44.0453 45.2473 H 0.0 **** 0.0
43884 H 104.93 43.7692 43.5168 H 0.0 **** 0.0
43885 H 95.7057 38.0674 59.909 H 0.0 **** 0.0
43886 H 97.9244 38.4791 58.9267 H 0.0 **** 0.0
43887 H 97.8482 40.2327 59.3019 H 0.0 **** 0.0
43888 H 96.6288 39.5211 58.2249 H 0.0 **** 0.0
43889 H 96.4933 37.6766 62.0136 H 0.0 **** 0.0
43890 H 97.8014 38.9513 61.8886 H 0.0 **** 0.0
43891 H 97.8257 37.4317 60.9725 H 0.0 **** 0.0
43892 H 102.254 43.3969 52.7623 H 0.0 **** 0.0
43893 H 102.712 44.2165 39.5086 H 0.0 **** 0.0
43894 H 102.661 44.254 36.9157 H 0.0 **** 0.0
43895 H 103.619 46.2918 35.6248 H 0.0 **** 0.0
43896 H 102.877 48.3644 33.5307 H 0.0 **** 0.0
43897 H 103.765 50.629 33.3584 H 0.0 **** 0.0
43898 H 105.759 52.886 36.6194 H 0.0 **** 0.0
43899 H 105.7 52.0141 34.3979 H 0.0 **** 0.0
43900 H 106.523 48.8718 42.0565 H 0.0 **** 0.0
43901 H 107.519 50.9756 42.1945 H 0.0 **** 0.0
43902 H 108.364 49.8267 41.0958 H 0.0 **** 0.0
43903 H 109.725 51.8955 41.7566 H 0.0 **** 0.0
43904 H 108.463 52.8879 40.9251 H 0.0 **** 0.0
43905 H 110.208 50.5696 39.7409 H 0.0 **** 0.0
43906 H 110.493 52.255 39.3355 H 0.0 **** 0.0
43907 C 38.341 98.459 1.97355 C 0.0 **** 0.0
43908 C 38.4663 98.3441 3.48768 C 0.0 **** 0.0
43909 C 38.3091 96.8726 3.90827 C 0.0 **** 0.0
43910 C 37.2101 96.132 3.1165 C 0.0 **** 0.0
43911 C 37.3304 96.4544 1.6081 C 0.0 **** 0.0
43912 O 38.4621 97.225 1.3467 O 0.0 **** 0.0
43913 C 35.8011 96.3728 3.75622 C 0.0 **** 0.0
43914 C 35.7212 96.2388 5.32812 C 0.0 **** 0.0
43915 C 37.0912 95.7285 5.89629 C 0.0 **** 0.0
43916 C 38.1974 96.6797 5.429 C 0.0 **** 0.0
43917 O 34.6377 95.4149 5.79107 O 0.0 **** 0.0
43918 C 33.3801 95.7384 5.16684 C 0.0 **** 0.0
43919 C 33.3894 95.715 3.56258 C 0.0 **** 0.0
43920 C 34.8008 95.4174 3.11618 C 0.0 **** 0.0
43921 C 32.767 96.9081 2.84733 C 0.0 **** 0.0
43922 C 32.2919 98.0724 3.57971 C 0.0 **** 0.0
43923 C 31.6935 97.6853 4.92563 C 0.0 **** 0.0
43924 C 32.7315 96.9904 5.79553 C 0.0 **** 0.0
43925 C 31.3167 99.0082 5.64196 C 0.0 **** 0.0
43926 C 30.244 99.8069 4.87203 C 0.0 **** 0.0
43927 C 30.7438 100.122 3.51313 C 0.0 **** 0.0
43928 C 31.224 98.8821 2.76555 C 0.0 **** 0.0
43929 C 31.7566 99.196 1.39069 C 0.0 **** 0.0
43930 C 31.9078 97.8745 0.624015 C 0.0 **** 0.0
43931 C 32.6413 96.8108 1.4197 C 0.0 **** 0.0
43932 O 29.9858 101.098 2.76218 O 0.0 **** 0.0
43933 C 28.7078 101.324 3.35446 C 0.0 **** 0.0
43934 C 28.765 101.761 4.77132 C 0.0 **** 0.0
43935 C 29.9652 101.195 5.49855 C 0.0 **** 0.0
43936 C 32.1013 96.7438 7.15503 C 0.0 **** 0.0
43937 C 31.9892 98.0518 7.92287 C 0.0 **** 0.0
43938 C 30.9589 98.9675 7.14103 C 0.0 **** 0.0
43939 C 31.4456 97.8062 9.28011 C 0.0 **** 0.0
43940 C 30.5675 96.8309 9.53864 C 0.0 **** 0.0
43941 C 30.3973 95.643 8.59176 C 0.0 **** 0.0
43942 C 31.266 95.6666 7.41546 C 0.0 **** 0.0
43943 C 29.8064 96.8207 10.8447 C 0.0 **** 0.0
43944 C 29.5923 98.2518 11.386 C 0.0 **** 0.0
43945 C 30.875 98.9993 11.3783 C 0.0 **** 0.0
43946 C 31.7683 98.7859 10.4091 C 0.0 **** 0.0
43947 C 33.1672 99.4664 10.432 C 0.0 **** 0.0
43948 C 33.4692 100.168 11.7662 C 0.0 **** 0.0
43949 C 32.2232 100.954 12.1484 C 0.0 **** 0.0
43950 C 31.0957 99.9802 12.531 C 0.0 **** 0.0
43951 C 29.7243 101.137 6.97683 C 0.0 **** 0.0
43952 C 30.9079 100.408 7.66682 C 0.0 **** 0.0
43953 C 28.8588 103.279 4.96039 C 0.0 **** 0.0
43954 C 28.2592 103.468 6.36364 C 0.0 **** 0.0
43955 S 29.4061 102.779 7.66446 S 0.0 **** 0.0
43956 C 27.7836 104.885 6.72824 C 0.0 **** 0.0
43957 C 26.8348 105.461 5.64175 C 0.0 **** 0.0
43958 C 26.6936 104.58 4.38401 C 0.0 **** 0.0
43959 C 28.1167 104.167 3.9416 C 0.0 **** 0.0
43960 C 25.8406 105.352 3.34977 C 0.0 **** 0.0
43961 C 24.4228 105.562 3.93107 C 0.0 **** 0.0
43962 C 24.587 106.473 5.1876 C 0.0 **** 0.0
43963 C 25.4857 105.838 6.24005 C 0.0 **** 0.0
43964 C 23.2282 106.933 5.78877 C 0.0 **** 0.0
43965 C 22.0888 107.167 4.81044 C 0.0 **** 0.0
43966 C 22.0122 106.286 3.56095 C 0.0 **** 0.0
43967 C 23.4416 106.269 2.96393 C 0.0 **** 0.0
43968 C 28.1393 103.62 2.48225 C 0.0 **** 0.0
43969 C 27.804 102.143 2.46739 C 0.0 **** 0.0
43970 C 25.8099 104.652 2.05714 C 0.0 **** 0.0
43971 C 27.2873 104.553 1.59174 C 0.0 **** 0.0
43972 C 23.4946 105.591 1.5657 C 0.0 **** 0.0
43973 C 24.9589 105.41 1.05314 C 0.0 **** 0.0
43974 C 20.9629 106.789 2.45978 C 0.0 **** 0.0
43975 C 21.1168 105.899 1.23064 C 0.0 **** 0.0
43976 C 22.5108 106.191 0.607908 C 0.0 **** 0.0
43977 O 20.8856 107.194 5.55472 O 0.0 **** 0.0
43978 C 20.8274 108.407 6.3397 C 0.0 **** 0.0
43979 C 22.2104 109.114 6.56962 C 0.0 **** 0.0
43980 C 23.4049 108.132 6.6842 C 0.0 **** 0.0
43981 C 22.1824 110.146 7.69623 C 0.0 **** 0.0
43982 C 20.7141 110.59 7.98037 C 0.0 **** 0.0
43983 C 19.8875 109.448 8.48609 C 0.0 **** 0.0
43984 C 19.96 108.167 7.61493 C 0.0 **** 0.0
43985 C 18.6086 107.552 7.26671 C 0.0 **** 0.0
43986 C 17.6251 107.57 8.44532 C 0.0 **** 0.0
43987 C 17.7186 108.841 9.33526 C 0.0 **** 0.0
43988 N 18.5123 109.939 8.71209 N 0.0 **** 0.0
43989 C 27.5433 104.421 0.113076 C 0.0 **** 0.0
43990 C 26.2833 103.96 -0.676476 C 0.0 **** 0.0
43991 C 25.0685 104.886 -0.413967 C 0.0 **** 0.0
43992 O 26.4684 103.969 -2.04784 O 0.0 **** 0.0
43993 C 27.6005 103.239 -2.40718 C 0.0 **** 0.0
43994 C 28.8476 103.543 -1.59763 C 0.0 **** 0.0
43995 O 28.6649 103.594 -0.182718 O 0.0 **** 0.0
43996 C 29.5839 104.831 -2.10451 C 0.0 **** 0.0
43997 C 28.6406 105.866 -2.78413 C 0.0 **** 0.0
43998 C 27.84 105.207 -3.93106 C 0.0 **** 0.0
43999 C 27.8945 103.661 -3.89452 C 0.0 **** 0.0
44000 C 22.7192 105.652 -0.829798 C 0.0 **** 0.0
44001 C 23.6737 104.483 -0.935534 C 0.0 **** 0.0
44002 C 20.0256 106.094 0.226962 C 0.0 **** 0.0
44003 C 20.2664 105.177 -0.899672 C 0.0 **** 0.0
44004 C 21.4964 105.577 -1.67534 C 0.0 **** 0.0
44005 C 18.6373 105.865 0.897424 C 0.0 **** 0.0
44006 C 18.4873 107.028 1.84923 C 0.0 **** 0.0
44007 C 19.5536 106.796 2.97346 C 0.0 **** 0.0
44008 O 19.2176 104.911 -1.77499 O 0.0 **** 0.0
44009 C 18.162 105.851 -1.60621 C 0.0 **** 0.0
44010 C 17.5479 105.779 -0.17013 C 0.0 **** 0.0
44011 C 17.077 107.109 2.44071 C 0.0 **** 0.0
44012 C 15.9553 106.839 1.37161 C 0.0 **** 0.0
44013 C 16.4897 106.867 -0.0515605 C 0.0 **** 0.0
44014 C 14.7698 107.845 1.43263 C 0.0 **** 0.0
44015 C 14.3744 108.05 2.88107 C 0.0 **** 0.0
44016 C 15.492 108.544 3.79791 C 0.0 **** 0.0
44017 C 16.908 108.454 3.15587 C 0.0 **** 0.0
44018 C 15.3311 106.496 -1.03793 C 0.0 **** 0.0
44019 C 15.7805 106.374 -2.488 C 0.0 **** 0.0
44020 C 17.0383 105.508 -2.61188 C 0.0 **** 0.0
44021 C 13.6048 107.341 0.519097 C 0.0 **** 0.0
44022 C 14.0882 107.376 -0.933515 C 0.0 **** 0.0
44023 C 34.7261 101.052 11.7282 C 0.0 **** 0.0
44024 C 34.9551 101.713 13.0951 C 0.0 **** 0.0
44025 C 35.9704 100.129 11.5482 C 0.0 **** 0.0
44026 O 24.5486 108.868 6.36683 O 0.0 **** 0.0
44027 C 17.4543 105.39 -4.07547 C 0.0 **** 0.0
44028 C 16.34 104.684 -4.88394 C 0.0 **** 0.0
44029 C 15.0426 105.483 -4.77236 C 0.0 **** 0.0
44030 C 14.6423 105.705 -3.30866 C 0.0 **** 0.0
44031 C 13.3938 106.589 -3.24561 C 0.0 **** 0.0
44032 C 12.2557 105.903 -4.02429 C 0.0 **** 0.0
44033 C 12.6337 105.599 -5.48762 C 0.0 **** 0.0
44034 C 13.9039 104.818 -5.53756 C 0.0 **** 0.0
44035 C 11.4921 104.908 -6.28788 C 0.0 **** 0.0
44036 C 10.203 105.771 -6.24166 C 0.0 **** 0.0
44037 C 9.83022 106.053 -4.74009 C 0.0 **** 0.0
44038 C 10.9782 106.754 -3.94938 C 0.0 **** 0.0
44039 C 10.5203 106.871 -2.50108 C 0.0 **** 0.0
44040 C 11.6357 107.427 -1.61642 C 0.0 **** 0.0
44041 C 12.9783 106.775 -1.81859 C 0.0 **** 0.0
44042 C 9.318 107.784 -2.36234 C 0.0 **** 0.0
44043 C 8.23203 107.275 -3.28003 C 0.0 **** 0.0
44044 C 8.72182 107.089 -4.73541 C 0.0 **** 0.0
44045 C 12.2605 108.074 0.673937 C 0.0 **** 0.0
44046 C 11.2839 107.263 -0.141513 C 0.0 **** 0.0
44047 C 8.82535 107.72 -0.880295 C 0.0 **** 0.0
44048 C 9.87417 107.707 0.215961 C 0.0 **** 0.0
44049 C 9.28742 106.983 1.39527 C 0.0 **** 0.0
44050 C 7.81571 107.406 1.66761 C 0.0 **** 0.0
44051 C 7.43428 108.75 1.04001 C 0.0 **** 0.0
44052 C 7.82223 108.734 -0.416144 C 0.0 **** 0.0
44053 O 7.45427 109.613 -1.15977 O 0.0 **** 0.0
44054 H 39.1186 99.2024 1.53284 H 0.0 **** 0.0
44055 H 37.3336 98.9479 1.78109 H 0.0 **** 0.0
44056 H 39.4465 98.7054 3.84666 H 0.0 **** 0.0
44057 H 37.7299 99.0337 3.96717 H 0.0 **** 0.0
44058 H 39.2677 96.3718 3.62262 H 0.0 **** 0.0
44059 H 37.4153 95.0459 3.21776 H 0.0 **** 0.0
44060 H 36.4154 96.9609 1.21723 H 0.0 **** 0.0
44061 H 37.4102 95.4685 1.08539 H 0.0 **** 0.0
44062 H 35.4769 97.4005 3.47882 H 0.0 **** 0.0
44063 H 35.6306 97.1872 5.8047 H 0.0 **** 0.0
44064 H 37.3217 94.7184 5.59359 H 0.0 **** 0.0
44065 H 37.023 95.6363 7.00437 H 0.0 **** 0.0
44066 H 39.1677 96.2647 5.73215 H 0.0 **** 0.0
44067 H 38.0927 97.6923 5.92558 H 0.0 **** 0.0
44068 H 32.7539 94.8013 5.39274 H 0.0 **** 0.0
44069 H 32.7864 94.8532 3.24652 H 0.0 **** 0.0
44070 H 34.851 95.409 2.02164 H 0.0 **** 0.0
44071 H 35.0258 94.3638 3.44192 H 0.0 **** 0.0
44072 H 33.609 97.7089 5.92304 H 0.0 **** 0.0
44073 H 31.1517 99.8338 0.741642 H 0.0 **** 0.0
44074 H 32.7151 99.7396 1.53604 H 0.0 **** 0.0
44075 H 32.2338 97.9541 -0.440241 H 0.0 **** 0.0
44076 H 30.8799 97.4597 0.536281 H 0.0 **** 0.0
44077 H 32.9764 95.9277 0.880635 H 0.0 **** 0.0
44078 H 33.0117 98.5053 7.98735 H 0.0 **** 0.0
44079 H 29.3321 95.5017 8.24454 H 0.0 **** 0.0
44080 H 30.6066 94.7657 9.1517 H 0.0 **** 0.0
44081 H 31.185 94.8398 6.74467 H 0.0 **** 0.0
44082 H 28.8034 96.4454 10.7321 H 0.0 **** 0.0
44083 H 30.3432 96.2345 11.6282 H 0.0 **** 0.0
44084 H 29.1676 98.1748 12.441 H 0.0 **** 0.0
44085 H 28.869 98.8255 10.773 H 0.0 **** 0.0
44086 H 33.9518 98.657 10.3058 H 0.0 **** 0.0
44087 H 33.1318 100.173 9.56096 H 0.0 **** 0.0
44088 H 33.6093 99.3429 12.5035 H 0.0 **** 0.0
44089 H 31.8703 101.574 11.3153 H 0.0 **** 0.0
44090 H 32.4191 101.644 12.9932 H 0.0 **** 0.0
44091 H 30.1549 100.576 12.6911 H 0.0 **** 0.0
44092 H 31.2995 99.4381 13.4879 H 0.0 **** 0.0
44093 H 30.7551 100.45 8.74656 H 0.0 **** 0.0
44094 H 27.3178 104.903 7.76079 H 0.0 **** 0.0
44095 H 25.6293 106.535 7.08585 H 0.0 **** 0.0
44096 H 27.9085 101.72 1.45511 H 0.0 **** 0.0
44097 H 20.2285 109.086 5.6416 H 0.0 **** 0.0
44098 H 22.3003 109.726 5.64514 H 0.0 **** 0.0
44099 H 23.4952 107.762 7.70488 H 0.0 **** 0.0
44100 H 22.6282 109.85 8.66156 H 0.0 **** 0.0
44101 H 22.7891 111.016 7.3519 H 0.0 **** 0.0
44102 H 20.2773 110.907 7.04808 H 0.0 **** 0.0
44103 H 20.7508 111.39 8.75 H 0.0 **** 0.0
44104 H 20.3357 109.245 9.50579 H 0.0 **** 0.0
44105 H 20.4502 107.446 8.27096 H 0.0 **** 0.0
44106 H 18.215 108.1 6.3699 H 0.0 **** 0.0
44107 H 18.7837 106.488 6.92718 H 0.0 **** 0.0
44108 H 17.7844 106.655 9.03636 H 0.0 **** 0.0
44109 H 16.5936 107.579 7.96898 H 0.0 **** 0.0
44110 H 18.2308 108.527 10.263 H 0.0 **** 0.0
44111 H 16.7881 109.281 9.67516 H 0.0 **** 0.0
44112 H 18.0499 110.143 7.79149 H 0.0 **** 0.0
44113 H 27.3902 102.156 -2.36089 H 0.0 **** 0.0
44114 H 29.5533 102.71 -1.76695 H 0.0 **** 0.0
44115 H 30.1643 105.397 -1.31894 H 0.0 **** 0.0
44116 H 30.3159 104.55 -2.85206 H 0.0 **** 0.0
44117 H 29.2074 106.737 -3.10376 H 0.0 **** 0.0
44118 H 27.9942 106.212 -1.96041 H 0.0 **** 0.0
44119 H 28.1793 105.562 -4.9388 H 0.0 **** 0.0
44120 H 26.7935 105.629 -3.86394 H 0.0 **** 0.0
44121 H 28.8778 103.316 -4.29031 H 0.0 **** 0.0
44122 H 27.195 103.271 -4.66261 H 0.0 **** 0.0
44123 H 23.7758 104.159 -2.00829 H 0.0 **** 0.0
44124 H 21.3378 106.603 -2.08396 H 0.0 **** 0.0
44125 H 19.4368 107.507 3.7795 H 0.0 **** 0.0
44126 H 17.0327 106.273 3.2257 H 0.0 **** 0.0
44127 H 15.5065 105.818 1.61611 H 0.0 **** 0.0
44128 H 15.0929 108.842 1.04155 H 0.0 **** 0.0
44129 H 13.9494 107.116 3.32894 H 0.0 **** 0.0
44130 H 13.5678 108.813 2.92924 H 0.0 **** 0.0
44131 H 15.4325 108.065 4.81924 H 0.0 **** 0.0
44132 H 15.2998 109.625 3.92769 H 0.0 **** 0.0
44133 H 17.6886 108.675 3.95725 H 0.0 **** 0.0
44134 H 17.0154 109.284 2.43407 H 0.0 **** 0.0
44135 H 34.6955 101.768 10.9447 H 0.0 **** 0.0
44136 H 35.9625 102.237 13.1506 H 0.0 **** 0.0
44137 H 34.7478 100.983 13.9304 H 0.0 **** 0.0
44138 H 34.3241 102.643 13.2845 H 0.0 **** 0.0
44139 H 35.7998 99.2112 12.0852 H 0.0 **** 0.0
44140 H 36.9077 100.605 11.8773 H 0.0 **** 0.0
44141 H 36.1616 99.8395 10.4827 H 0.0 **** 0.0
44142 H 25.0487 109.12 7.18476 H 0.0 **** 0.0
44143 H 18.2649 104.622 -4.13889 H 0.0 **** 0.0
44144 H 16.612 104.54 -5.9683 H 0.0 **** 0.0
44145 H 14.1227 104.714 -6.64314 H 0.0 **** 0.0
44146 H 11.6822 104.755 -7.37606 H 0.0 **** 0.0
44147 H 9.38764 105.144 -6.65026 H 0.0 **** 0.0
44148 H 7.35674 107.923 -3.1859 H 0.0 **** 0.0
44149 H 7.87636 106.781 -5.26251 H 0.0 **** 0.0
44150 H 11.8907 108.012 1.72259 H 0.0 **** 0.0
44151 H 9.35657 105.919 1.29491 H 0.0 **** 0.0
44152 H 9.84403 107.232 2.30517 H 0.0 **** 0.0
44153 H 7.72621 107.465 2.75042 H 0.0 **** 0.0
44154 H 7.179 106.575 1.2551 H 0.0 **** 0.0
44155 H 7.98391 109.565 1.59135 H 0.0 **** 0.0
44156 H 6.35343 108.931 1.09211 H 0.0 **** 0.0
44157 C 32.911 20.7053 52.5181 C 0.0 **** 0.0
44158 C 33.9383 19.603 52.615 C 0.0 **** 0.0
44159 C 35.0198 19.8067 51.5103 C 0.0 **** 0.0
44160 C 34.3778 19.9401 50.0895 C 0.0 **** 0.0
44161 C 33.114 20.8367 50.158 C 0.0 **** 0.0
44162 O 33.0695 21.5578 51.3873 O 0.0 **** 0.0
44163 C 34.0881 18.4881 49.4685 C 0.0 **** 0.0
44164 C 35.2738 17.4958 49.7289 C 0.0 **** 0.0
44165 C 36.5104 18.1961 50.3025 C 0.0 **** 0.0
44166 C 36.1729 18.7537 51.6533 C 0.0 **** 0.0
44167 O 35.735 16.7475 48.6032 O 0.0 **** 0.0
44168 C 34.7023 16.2325 47.7838 C 0.0 **** 0.0
44169 C 34.0614 17.3811 47.0441 C 0.0 **** 0.0
44170 C 33.6439 18.5686 47.9556 C 0.0 **** 0.0
44171 C 32.9771 16.841 46.1417 C 0.0 **** 0.0
44172 C 31.9833 15.8734 46.6175 C 0.0 **** 0.0
44173 C 32.6622 14.7757 47.4604 C 0.0 **** 0.0
44174 C 33.661 15.3016 48.535 C 0.0 **** 0.0
44175 C 31.6014 13.7893 48.0009 C 0.0 **** 0.0
44176 C 30.7515 13.1601 46.8779 C 0.0 **** 0.0
44177 C 30.0632 14.3006 46.0741 C 0.0 **** 0.0
44178 C 31.1054 15.2503 45.4833 C 0.0 **** 0.0
44179 C 30.516 16.3747 44.5996 C 0.0 **** 0.0
44180 C 31.7259 17.1081 43.9379 C 0.0 **** 0.0
44181 C 32.8622 17.4133 44.8538 C 0.0 **** 0.0
44182 O 29.0658 13.881 45.1205 O 0.0 **** 0.0
44183 C 29.1321 12.4762 44.9127 C 0.0 **** 0.0
44184 C 28.7459 11.7251 46.2485 C 0.0 **** 0.0
44185 C 29.7426 12.1309 47.4099 C 0.0 **** 0.0
44186 C 34.1241 14.1748 49.4464 C 0.0 **** 0.0
44187 C 32.9729 13.3655 50.0832 C 0.0 **** 0.0
44188 C 32.2235 12.6984 48.9039 C 0.0 **** 0.0
44189 C 33.468 12.3583 51.1338 C 0.0 **** 0.0
44190 C 34.7198 11.8496 51.0524 C 0.0 **** 0.0
44191 C 35.8031 12.533 50.2244 C 0.0 **** 0.0
44192 C 35.3944 13.7881 49.5419 C 0.0 **** 0.0
44193 C 35.038 10.5924 51.8066 C 0.0 **** 0.0
44194 C 33.8317 9.60177 51.8181 C 0.0 **** 0.0
44195 C 32.5791 10.3267 52.3002 C 0.0 **** 0.0
44196 C 32.4654 11.6673 52.047 C 0.0 **** 0.0
44197 C 31.3353 12.4454 52.6593 C 0.0 **** 0.0
44198 C 30.6891 11.7625 53.9161 C 0.0 **** 0.0
44199 C 30.3999 10.3107 53.571 C 0.0 **** 0.0
44200 C 31.6737 9.55523 53.1709 C 0.0 **** 0.0
44201 C 30.5016 10.9815 48.0576 C 0.0 **** 0.0
44202 C 31.3128 11.5203 49.2567 C 0.0 **** 0.0
44203 C 28.6984 10.221 46.0294 C 0.0 **** 0.0
44204 C 28.3462 9.41498 47.3158 C 0.0 **** 0.0
44205 S 29.304 9.87935 48.8163 S 0.0 **** 0.0
44206 C 28.5142 7.9353 46.9632 C 0.0 **** 0.0
44207 C 27.3998 7.59806 45.9908 C 0.0 **** 0.0
44208 C 27.5561 8.35668 44.6839 C 0.0 **** 0.0
44209 C 27.702 9.88454 44.9189 C 0.0 **** 0.0
44210 C 26.2562 8.2063 43.939 C 0.0 **** 0.0
44211 C 25.8139 6.76038 43.6372 C 0.0 **** 0.0
44212 C 25.8987 5.91648 44.9274 C 0.0 **** 0.0
44213 C 27.2411 6.10788 45.6418 C 0.0 **** 0.0
44214 C 25.4094 4.47765 44.5929 C 0.0 **** 0.0
44215 C 23.866 4.54839 44.2832 C 0.0 **** 0.0
44216 C 23.6721 5.40221 43.0114 C 0.0 **** 0.0
44217 C 24.3524 6.79455 43.219 C 0.0 **** 0.0
44218 C 28.079 10.5734 43.596 C 0.0 **** 0.0
44219 C 28.1246 12.0967 43.7825 C 0.0 **** 0.0
44220 C 26.0288 9.21174 42.7382 C 0.0 **** 0.0
44221 C 27.3342 9.97199 42.3691 C 0.0 **** 0.0
44222 C 24.0956 7.82114 42.0677 C 0.0 **** 0.0
44223 C 25.3848 8.53229 41.5328 C 0.0 **** 0.0
44224 C 22.1928 5.75107 42.7031 C 0.0 **** 0.0
44225 C 22.0696 6.52775 41.3615 C 0.0 **** 0.0
44226 C 23.3627 7.16463 40.8967 C 0.0 **** 0.0
44227 O 23.3643 3.21762 44.2352 O 0.0 **** 0.0
44228 C 23.2512 2.75433 45.5962 C 0.0 **** 0.0
44229 C 24.5453 3.03968 46.4609 C 0.0 **** 0.0
44230 C 25.7326 3.27605 45.4928 C 0.0 **** 0.0
44231 C 24.8961 1.91247 47.5057 C 0.0 **** 0.0
44232 C 23.6059 1.26716 48.0491 C 0.0 **** 0.0
44233 C 22.9667 0.489147 46.8953 C 0.0 **** 0.0
44234 C 22.9708 1.24177 45.5491 C 0.0 **** 0.0
44235 C 21.7534 0.918109 44.6957 C 0.0 **** 0.0
44236 C 21.3346 -0.590406 44.8866 C 0.0 **** 0.0
44237 C 21.0878 -0.923301 46.3746 C 0.0 **** 0.0
44238 N 21.6225 0.0740389 47.2996 N 0.0 **** 0.0
44239 C 27.2498 10.8294 41.1436 C 0.0 **** 0.0
44240 C 26.4649 10.2181 40.0023 C 0.0 **** 0.0
44241 C 25.1166 9.58415 40.4877 C 0.0 **** 0.0
44242 O 26.2593 11.2692 39.0802 O 0.0 **** 0.0
44243 C 27.5047 11.6029 38.4696 C 0.0 **** 0.0
44244 C 28.5768 11.9207 39.5073 C 0.0 **** 0.0
44245 O 28.54 11.0825 40.6787 O 0.0 **** 0.0
44246 C 28.7049 13.3977 39.8408 C 0.0 **** 0.0
44247 C 29.1199 14.2127 38.5894 C 0.0 **** 0.0
44248 C 28.5651 13.6202 37.2854 C 0.0 **** 0.0
44249 C 27.2565 12.7853 37.4941 C 0.0 **** 0.0
44250 C 23.0936 8.18224 39.7266 C 0.0 **** 0.0
44251 C 24.3793 8.92515 39.3281 C 0.0 **** 0.0
44252 C 21.4874 5.717 40.1825 C 0.0 **** 0.0
44253 C 21.1488 6.68187 38.9938 C 0.0 **** 0.0
44254 C 22.4092 7.44838 38.5551 C 0.0 **** 0.0
44255 C 20.2984 4.83623 40.5788 C 0.0 **** 0.0
44256 C 20.8051 3.87982 41.6717 C 0.0 **** 0.0
44257 C 21.0463 4.72098 42.9494 C 0.0 **** 0.0
44258 O 20.578 5.98036 37.8773 O 0.0 **** 0.0
44259 C 19.4518 5.25034 38.3016 C 0.0 **** 0.0
44260 C 19.9409 4.17386 39.266 C 0.0 **** 0.0
44261 C 19.9683 2.60536 41.8741 C 0.0 **** 0.0
44262 C 19.4683 2.0383 40.5147 C 0.0 **** 0.0
44263 C 18.9816 3.05775 39.4659 C 0.0 **** 0.0
44264 C 18.2883 1.03539 40.6246 C 0.0 **** 0.0
44265 C 18.4295 0.287275 41.9391 C 0.0 **** 0.0
44266 C 18.2463 1.23071 43.1699 C 0.0 **** 0.0
44267 C 18.8048 2.65265 42.9111 C 0.0 **** 0.0
44268 C 18.857 2.31856 38.1316 C 0.0 **** 0.0
44269 C 18.8549 3.1831 36.8511 C 0.0 **** 0.0
44270 C 18.5577 4.65976 37.1367 C 0.0 **** 0.0
44271 C 18.3832 0.184313 39.33 C 0.0 **** 0.0
44272 C 17.9757 1.07743 38.1141 C 0.0 **** 0.0
44273 C 29.4612 12.6229 54.4335 C 0.0 **** 0.0
44274 C 28.1765 12.4691 53.6133 C 0.0 **** 0.0
44275 C 29.2014 12.413 55.9415 C 0.0 **** 0.0
44276 O 26.9345 3.40522 46.1568 O 0.0 **** 0.0
44277 C 18.6119 5.43997 35.808 C 0.0 **** 0.0
44278 C 17.7895 4.85297 34.6468 C 0.0 **** 0.0
44279 C 18.0429 3.33405 34.4748 C 0.0 **** 0.0
44280 C 17.9363 2.57932 35.7786 C 0.0 **** 0.0
44281 C 18.1852 1.08871 35.5806 C 0.0 **** 0.0
44282 C 17.2523 0.481928 34.6111 C 0.0 **** 0.0
44283 C 17.1813 1.25069 33.2806 C 0.0 **** 0.0
44284 C 17.0479 2.75983 33.4483 C 0.0 **** 0.0
44285 C 15.9771 0.71565 32.5448 C 0.0 **** 0.0
44286 C 16.2144 -0.736683 32.1456 C 0.0 **** 0.0
44287 C 16.4652 -1.56223 33.4187 C 0.0 **** 0.0
44288 C 17.5582 -0.979686 34.2989 C 0.0 **** 0.0
44289 C 17.8131 -1.82582 35.5651 C 0.0 **** 0.0
44290 C 17.4547 -1.07968 36.8389 C 0.0 **** 0.0
44291 C 18.2224 0.295272 36.8756 C 0.0 **** 0.0
44292 C 17.0728 -3.15613 35.4809 C 0.0 **** 0.0
44293 C 17.3299 -3.81868 34.1274 C 0.0 **** 0.0
44294 C 16.7917 -2.98606 33.0228 C 0.0 **** 0.0
44295 C 17.6083 -1.11506 39.2703 C 0.0 **** 0.0
44296 C 18.0061 -1.8447 38.0261 C 0.0 **** 0.0
44297 C 17.5821 -4.00064 36.6372 C 0.0 **** 0.0
44298 C 17.5684 -3.29026 38.0104 C 0.0 **** 0.0
44299 C 18.3837 -4.15757 39.0202 C 0.0 **** 0.0
44300 C 18.6265 -5.61314 38.5285 C 0.0 **** 0.0
44301 C 17.411 -6.25852 37.8156 C 0.0 **** 0.0
44302 C 16.8526 -5.29727 36.7929 C 0.0 **** 0.0
44303 O 15.7931 -5.5435 36.1927 O 0.0 **** 0.0
44304 H 33.0292 21.429 53.377 H 0.0 **** 0.0
44305 H 31.8623 20.285 52.5218 H 0.0 **** 0.0
44306 H 34.3977 19.5509 53.6285 H 0.0 **** 0.0
44307 H 33.4894 18.6077 52.5009 H 0.0 **** 0.0
44308 H 35.503 20.8276 51.7285 H 0.0 **** 0.0
44309 H 35.0685 20.4432 49.4091 H 0.0 **** 0.0
44310 H 32.1522 20.3234 50.002 H 0.0 **** 0.0
44311 H 33.1299 21.5826 49.316 H 0.0 **** 0.0
44312 H 33.2055 18.0579 50.0239 H 0.0 **** 0.0
44313 H 35.0028 16.743 50.5403 H 0.0 **** 0.0
44314 H 36.8869 18.9331 49.5951 H 0.0 **** 0.0
44315 H 37.3378 17.4682 50.4519 H 0.0 **** 0.0
44316 H 37.1061 19.2293 52.0673 H 0.0 **** 0.0
44317 H 35.8526 17.955 52.3407 H 0.0 **** 0.0
44318 H 35.2132 15.6212 47.0033 H 0.0 **** 0.0
44319 H 34.888 17.7505 46.3538 H 0.0 **** 0.0
44320 H 32.5959 18.7938 47.9326 H 0.0 **** 0.0
44321 H 34.1254 19.5199 47.5485 H 0.0 **** 0.0
44322 H 33.0585 15.9305 49.259 H 0.0 **** 0.0
44323 H 29.8147 16.0334 43.7579 H 0.0 **** 0.0
44324 H 29.86 17.116 45.1856 H 0.0 **** 0.0
44325 H 31.3437 18.0291 43.4648 H 0.0 **** 0.0
44326 H 32.1146 16.4292 43.1596 H 0.0 **** 0.0
44327 H 33.5642 18.1593 44.5226 H 0.0 **** 0.0
44328 H 32.2568 14.0925 50.5792 H 0.0 **** 0.0
44329 H 36.1817 11.7661 49.504 H 0.0 **** 0.0
44330 H 36.6793 12.7818 50.8921 H 0.0 **** 0.0
44331 H 36.1456 14.3922 49.0422 H 0.0 **** 0.0
44332 H 35.9105 10.0918 51.4318 H 0.0 **** 0.0
44333 H 35.266 10.8628 52.8208 H 0.0 **** 0.0
44334 H 34.0242 8.71111 52.466 H 0.0 **** 0.0
44335 H 33.691 9.14699 50.8055 H 0.0 **** 0.0
44336 H 31.6984 13.4655 52.9553 H 0.0 **** 0.0
44337 H 30.5944 12.5488 51.8441 H 0.0 **** 0.0
44338 H 31.4402 11.7576 54.6963 H 0.0 **** 0.0
44339 H 29.6293 10.2316 52.7909 H 0.0 **** 0.0
44340 H 29.9878 9.84846 54.4736 H 0.0 **** 0.0
44341 H 31.4587 8.53815 52.738 H 0.0 **** 0.0
44342 H 32.2657 9.35078 54.0832 H 0.0 **** 0.0
44343 H 31.9898 10.666 49.6004 H 0.0 **** 0.0
44344 H 28.4508 7.35021 47.8843 H 0.0 **** 0.0
44345 H 27.1755 5.54689 46.5649 H 0.0 **** 0.0
44346 H 28.3728 12.5939 42.806 H 0.0 **** 0.0
44347 H 22.3844 3.26987 46.0548 H 0.0 **** 0.0
44348 H 24.4055 3.96032 47.0926 H 0.0 **** 0.0
44349 H 25.7475 2.32278 44.8554 H 0.0 **** 0.0
44350 H 25.4755 1.09577 47.0696 H 0.0 **** 0.0
44351 H 25.5077 2.35659 48.3813 H 0.0 **** 0.0
44352 H 22.9331 2.08552 48.3612 H 0.0 **** 0.0
44353 H 24.0079 0.573933 48.8486 H 0.0 **** 0.0
44354 H 23.5737 -0.456188 46.8123 H 0.0 **** 0.0
44355 H 23.8517 0.779133 45.0146 H 0.0 **** 0.0
44356 H 20.8646 1.56065 44.8719 H 0.0 **** 0.0
44357 H 22.0341 1.00103 43.6323 H 0.0 **** 0.0
44358 H 22.1776 -1.23003 44.5387 H 0.0 **** 0.0
44359 H 20.5041 -0.830227 44.2635 H 0.0 **** 0.0
44360 H 21.5959 -1.91318 46.6414 H 0.0 **** 0.0
44361 H 20.0101 -1.00371 46.5425 H 0.0 **** 0.0
44362 H 20.9924 0.901979 47.3364 H 0.0 **** 0.0
44363 H 27.8821 10.7848 37.8433 H 0.0 **** 0.0
44364 H 29.5393 11.651 39.0363 H 0.0 **** 0.0
44365 H 27.7419 13.7912 40.2442 H 0.0 **** 0.0
44366 H 29.4955 13.5535 40.6183 H 0.0 **** 0.0
44367 H 30.2226 14.2342 38.4793 H 0.0 **** 0.0
44368 H 28.8483 15.2816 38.7326 H 0.0 **** 0.0
44369 H 29.3127 12.8534 36.862 H 0.0 **** 0.0
44370 H 28.3402 14.3894 36.4665 H 0.0 **** 0.0
44371 H 26.8906 12.4181 36.5197 H 0.0 **** 0.0
44372 H 26.3809 13.3685 37.8954 H 0.0 **** 0.0
44373 H 24.1421 9.72699 38.5739 H 0.0 **** 0.0
44374 H 22.2029 8.14994 37.7754 H 0.0 **** 0.0
44375 H 21.2353 4.15324 43.8711 H 0.0 **** 0.0
44376 H 20.6633 1.83606 42.2702 H 0.0 **** 0.0
44377 H 20.3685 1.55346 40.0937 H 0.0 **** 0.0
44378 H 17.2688 1.52051 40.676 H 0.0 **** 0.0
44379 H 19.4082 -0.244624 42.0224 H 0.0 **** 0.0
44380 H 17.672 -0.525522 42.0024 H 0.0 **** 0.0
44381 H 18.7423 0.723155 44.0424 H 0.0 **** 0.0
44382 H 17.1389 1.31018 43.417 H 0.0 **** 0.0
44383 H 19.1788 3.09285 43.8886 H 0.0 **** 0.0
44384 H 18.031 3.30283 42.5567 H 0.0 **** 0.0
44385 H 29.7391 13.6595 54.3783 H 0.0 **** 0.0
44386 H 27.4321 13.226 53.9422 H 0.0 **** 0.0
44387 H 27.7444 11.4542 53.7922 H 0.0 **** 0.0
44388 H 28.4181 12.6361 52.5797 H 0.0 **** 0.0
44389 H 30.0649 12.742 56.5647 H 0.0 **** 0.0
44390 H 28.9812 11.2954 56.0862 H 0.0 **** 0.0
44391 H 28.3037 13.0489 56.2167 H 0.0 **** 0.0
44392 H 27.6493 3.26728 45.4686 H 0.0 **** 0.0
44393 H 18.2633 6.47692 36.0097 H 0.0 **** 0.0
44394 H 17.9809 5.44072 33.6862 H 0.0 **** 0.0
44395 H 17.2258 3.23981 32.4975 H 0.0 **** 0.0
44396 H 15.6935 1.34879 31.666 H 0.0 **** 0.0
44397 H 15.2651 -1.14356 31.7053 H 0.0 **** 0.0
44398 H 16.8391 -4.8135 34.056 H 0.0 **** 0.0
44399 H 17.5801 -2.9133 32.248 H 0.0 **** 0.0
44400 H 17.8163 -1.69901 40.1892 H 0.0 **** 0.0
44401 H 19.3328 -3.65722 39.3101 H 0.0 **** 0.0
44402 H 17.7196 -4.2596 39.9181 H 0.0 **** 0.0
44403 H 18.8227 -6.18394 39.4416 H 0.0 **** 0.0
44404 H 19.4997 -5.56577 37.8463 H 0.0 **** 0.0
44405 H 16.6233 -6.546 38.6128 H 0.0 **** 0.0
44406 H 17.6747 -7.19594 37.32 H 0.0 **** 0.0
44407 C 54.063 -14.268 40.7648 C 0.0 **** 0.0
44408 C 52.8056 -14.4218 39.892 C 0.0 **** 0.0
44409 C 53.1147 -15.1687 38.6061 C 0.0 **** 0.0
44410 C 54.3357 -14.5243 37.8958 C 0.0 **** 0.0
44411 C 55.4112 -14.1212 38.9331 C 0.0 **** 0.0
44412 O 55.229 -14.7688 40.1619 O 0.0 **** 0.0
44413 C 53.9564 -13.2367 37.0335 C 0.0 **** 0.0
44414 C 52.5883 -13.4051 36.278 C 0.0 **** 0.0
44415 C 52.1758 -14.8842 36.2575 C 0.0 **** 0.0
44416 C 51.8723 -15.3972 37.655 C 0.0 **** 0.0
44417 O 52.5704 -12.9267 34.9153 O 0.0 **** 0.0
44418 C 53.2718 -11.6645 34.7984 C 0.0 **** 0.0
44419 C 54.7631 -11.8502 34.9926 C 0.0 **** 0.0
44420 C 55.1293 -12.9409 36.044 C 0.0 **** 0.0
44421 C 55.5179 -10.5172 35.1963 C 0.0 **** 0.0
44422 C 54.8565 -9.35405 35.7657 C 0.0 **** 0.0
44423 C 53.4003 -9.22768 35.3523 C 0.0 **** 0.0
44424 C 52.6063 -10.5085 35.5694 C 0.0 **** 0.0
44425 C 52.7261 -7.99311 36.0668 C 0.0 **** 0.0
44426 C 53.5333 -6.74851 35.6879 C 0.0 **** 0.0
44427 C 55.0203 -6.79479 36.0257 C 0.0 **** 0.0
44428 C 55.6151 -8.05655 35.4352 C 0.0 **** 0.0
44429 C 57.0587 -8.19303 35.9209 C 0.0 **** 0.0
44430 C 57.7871 -9.32975 35.1403 C 0.0 **** 0.0
44431 C 56.9006 -10.4859 34.9021 C 0.0 **** 0.0
44432 O 55.6137 -5.65443 35.4728 O 0.0 **** 0.0
44433 C 55.3233 -4.56306 36.3377 C 0.0 **** 0.0
44434 C 53.8132 -4.26182 36.2212 C 0.0 **** 0.0
44435 C 53.0278 -5.55774 36.5268 C 0.0 **** 0.0
44436 C 51.191 -10.2199 35.0942 C 0.0 **** 0.0
44437 C 50.4297 -9.11886 35.8408 C 0.0 **** 0.0
44438 C 51.2444 -7.80982 35.6567 C 0.0 **** 0.0
44439 C 48.9534 -8.99666 35.4674 C 0.0 **** 0.0
44440 C 48.5541 -9.32152 34.2231 C 0.0 **** 0.0
44441 C 49.4977 -10.0214 33.3007 C 0.0 **** 0.0
44442 C 50.6136 -10.7696 34.0255 C 0.0 **** 0.0
44443 C 47.0745 -9.29266 33.817 C 0.0 **** 0.0
44444 C 46.2265 -8.39285 34.6837 C 0.0 **** 0.0
44445 C 46.6551 -8.31444 36.151 C 0.0 **** 0.0
44446 C 47.9261 -8.67215 36.5069 C 0.0 **** 0.0
44447 C 48.3287 -8.74896 37.9977 C 0.0 **** 0.0
44448 C 47.1422 -8.79036 38.9657 C 0.0 **** 0.0
44449 C 46.1584 -7.69706 38.5255 C 0.0 **** 0.0
44450 C 45.5985 -7.97044 37.1361 C 0.0 **** 0.0
44451 C 51.475 -5.35284 36.348 C 0.0 **** 0.0
44452 C 50.7059 -6.64785 36.5306 C 0.0 **** 0.0
44453 C 53.4232 -3.11687 37.1158 C 0.0 **** 0.0
44454 C 51.9221 -2.87213 36.7725 C 0.0 **** 0.0
44455 S 50.8441 -4.15807 37.5069 S 0.0 **** 0.0
44456 C 51.3663 -1.52954 37.2116 C 0.0 **** 0.0
44457 C 52.1841 -0.356985 36.7146 C 0.0 **** 0.0
44458 C 53.5202 -0.792112 36.0473 C 0.0 **** 0.0
44459 C 54.2091 -1.82542 36.8991 C 0.0 **** 0.0
44460 C 54.3467 0.482673 35.8981 C 0.0 **** 0.0
44461 C 53.607 1.47202 34.9909 C 0.0 **** 0.0
44462 C 52.2047 1.77352 35.4873 C 0.0 **** 0.0
44463 C 51.4521 0.502744 35.697 C 0.0 **** 0.0
44464 C 51.5464 2.70799 34.4611 C 0.0 **** 0.0
44465 C 52.2019 4.04538 34.78 C 0.0 **** 0.0
44466 C 53.6594 3.93586 34.257 C 0.0 **** 0.0
44467 C 54.4096 2.77436 34.9619 C 0.0 **** 0.0
44468 C 55.745 -2.08925 36.6351 C 0.0 **** 0.0
44469 C 56.0254 -3.33878 35.7703 C 0.0 **** 0.0
44470 C 55.7258 0.191264 35.3161 C 0.0 **** 0.0
44471 C 56.4809 -0.762582 36.2444 C 0.0 **** 0.0
44472 C 55.7052 2.47591 34.2666 C 0.0 **** 0.0
44473 C 56.5242 1.44884 35.0827 C 0.0 **** 0.0
44474 C 54.561 5.19832 34.4202 C 0.0 **** 0.0
44475 C 56.0835 5.03488 34.3227 C 0.0 **** 0.0
44476 C 56.4852 3.69841 33.7448 C 0.0 **** 0.0
44477 O 51.4853 5.06028 34.131 O 0.0 **** 0.0
44478 C 50.1893 5.22319 34.6969 C 0.0 **** 0.0
44479 C 49.3513 3.89435 34.7467 C 0.0 **** 0.0
44480 C 50.0679 2.75184 33.9915 C 0.0 **** 0.0
44481 C 47.8992 4.02498 34.261 C 0.0 **** 0.0
44482 C 47.2896 5.31501 34.8085 C 0.0 **** 0.0
44483 C 48.0142 6.56517 34.2211 C 0.0 **** 0.0
44484 C 49.5403 6.27615 33.8366 C 0.0 **** 0.0
44485 C 50.3735 7.58074 33.9153 C 0.0 **** 0.0
44486 C 49.5472 8.82442 33.5764 C 0.0 **** 0.0
44487 C 48.3122 8.95854 34.4935 C 0.0 **** 0.0
44488 N 47.8792 7.70317 35.1235 N 0.0 **** 0.0
44489 C 57.9531 -0.86349 36.0546 C 0.0 **** 0.0
44490 C 58.5607 -0.210623 34.7706 C 0.0 **** 0.0
44491 C 57.8252 1.08546 34.3652 C 0.0 **** 0.0
44492 O 59.9482 0.0307592 34.8882 O 0.0 **** 0.0
44493 C 60.5496 -0.901357 35.6874 C 0.0 **** 0.0
44494 C 60.049 -0.587763 37.1339 C 0.0 **** 0.0
44495 O 58.6273 -0.386894 37.2292 O 0.0 **** 0.0
44496 C 60.7759 0.595382 37.772 C 0.0 **** 0.0
44497 C 62.2954 0.733773 37.504 C 0.0 **** 0.0
44498 C 62.5146 0.600051 36.0122 C 0.0 **** 0.0
44499 C 62.068 -0.754679 35.4977 C 0.0 **** 0.0
44500 C 58.0045 3.56307 33.8703 C 0.0 **** 0.0
44501 C 58.4968 2.16852 33.4229 C 0.0 **** 0.0
44502 C 56.6022 6.13723 33.388 C 0.0 **** 0.0
44503 C 58.1314 6.04009 33.2681 C 0.0 **** 0.0
44504 C 58.6293 4.66337 32.9394 C 0.0 **** 0.0
44505 C 56.1683 7.54213 33.9091 C 0.0 **** 0.0
44506 C 54.6431 7.62386 33.9999 C 0.0 **** 0.0
44507 C 54.1351 6.54944 35.0003 C 0.0 **** 0.0
44508 O 58.5878 6.95417 32.3043 O 0.0 **** 0.0
44509 C 58.2522 8.25493 32.7683 C 0.0 **** 0.0
44510 C 56.6924 8.48015 32.8595 C 0.0 **** 0.0
44511 C 54.0 9.04714 34.0292 C 0.0 **** 0.0
44512 C 54.8591 10.126 33.324 C 0.0 **** 0.0
44513 C 56.3691 9.92696 33.2475 C 0.0 **** 0.0
44514 C 54.651 11.5811 33.8706 C 0.0 **** 0.0
44515 C 53.1621 11.7463 34.2099 C 0.0 **** 0.0
44516 C 52.7375 10.7815 35.3755 C 0.0 **** 0.0
44517 C 53.5813 9.45705 35.4528 C 0.0 **** 0.0
44518 C 57.0572 10.9672 32.2941 C 0.0 **** 0.0
44519 C 58.5687 10.7431 32.3234 C 0.0 **** 0.0
44520 C 58.9425 9.31385 31.8758 C 0.0 **** 0.0
44521 C 55.1891 12.5722 32.7926 C 0.0 **** 0.0
44522 C 56.6936 12.4203 32.7082 C 0.0 **** 0.0
44523 C 47.5791 -8.68497 40.4384 C 0.0 **** 0.0
44524 C 47.7255 -7.19749 40.8777 C 0.0 **** 0.0
44525 C 46.6228 -9.40841 41.3768 C 0.0 **** 0.0
44526 O 49.3532 1.53412 34.235 O 0.0 **** 0.0
44527 C 60.4241 9.09447 31.9726 C 0.0 **** 0.0
44528 C 61.2175 10.1186 31.1171 C 0.0 **** 0.0
44529 C 60.8054 11.583 31.5244 C 0.0 **** 0.0
44530 C 59.2567 11.7694 31.4157 C 0.0 **** 0.0
44531 C 58.8599 13.1906 31.7956 C 0.0 **** 0.0
44532 C 59.5783 14.2008 30.8601 C 0.0 **** 0.0
44533 C 61.148 14.0686 30.9722 C 0.0 **** 0.0
44534 C 61.5409 12.6131 30.6737 C 0.0 **** 0.0
44535 C 61.8355 15.0509 30.0308 C 0.0 **** 0.0
44536 C 61.4531 16.5098 30.3967 C 0.0 **** 0.0
44537 C 59.9534 16.6455 30.2605 C 0.0 **** 0.0
44538 C 59.2219 15.6425 31.2214 C 0.0 **** 0.0
44539 C 57.6906 15.8633 31.2542 C 0.0 **** 0.0
44540 C 56.9921 14.8433 32.1521 C 0.0 **** 0.0
44541 C 57.3772 13.4182 31.7889 C 0.0 **** 0.0
44542 C 57.3561 17.3598 31.5475 C 0.0 **** 0.0
44543 C 57.9283 18.1909 30.4207 C 0.0 **** 0.0
44544 C 59.4599 18.1064 30.4585 C 0.0 **** 0.0
44545 C 54.7333 14.0156 32.9555 C 0.0 **** 0.0
44546 C 55.494 15.0926 32.076 C 0.0 **** 0.0
44547 C 55.8654 17.6127 31.715 C 0.0 **** 0.0
44548 C 55.2035 16.5163 32.5797 C 0.0 **** 0.0
44549 C 53.6838 16.8226 32.7133 C 0.0 **** 0.0
44550 C 53.3805 18.2685 33.1893 C 0.0 **** 0.0
44551 C 54.0786 19.3575 32.3662 C 0.0 **** 0.0
44552 C 55.5373 19.0168 32.2418 C 0.0 **** 0.0
44553 O 56.4541 19.754 32.6467 O 0.0 **** 0.0
44554 H 53.8508 -14.8366 41.7132 H 0.0 **** 0.0
44555 H 54.2347 -13.2506 41.1223 H 0.0 **** 0.0
44556 H 51.9956 -14.9577 40.436 H 0.0 **** 0.0
44557 H 52.4371 -13.4006 39.7041 H 0.0 **** 0.0
44558 H 53.4796 -16.1633 38.9102 H 0.0 **** 0.0
44559 H 54.7998 -15.3169 37.2476 H 0.0 **** 0.0
44560 H 55.4209 -13.0357 39.1418 H 0.0 **** 0.0
44561 H 56.3766 -14.4831 38.6075 H 0.0 **** 0.0
44562 H 53.8337 -12.2992 37.6782 H 0.0 **** 0.0
44563 H 51.7982 -12.8938 36.8323 H 0.0 **** 0.0
44564 H 52.9532 -15.4718 35.6948 H 0.0 **** 0.0
44565 H 51.263 -14.93 35.6549 H 0.0 **** 0.0
44566 H 51.5971 -16.4754 37.6347 H 0.0 **** 0.0
44567 H 50.9833 -14.8086 37.9862 H 0.0 **** 0.0
44568 H 53.2142 -11.4092 33.7338 H 0.0 **** 0.0
44569 H 55.1759 -12.191 34.0275 H 0.0 **** 0.0
44570 H 55.9728 -12.5963 36.7073 H 0.0 **** 0.0
44571 H 55.4086 -13.832 35.5222 H 0.0 **** 0.0
44572 H 52.5949 -10.7397 36.6835 H 0.0 **** 0.0
44573 H 57.5946 -7.25532 35.7478 H 0.0 **** 0.0
44574 H 57.12 -8.40791 37.0028 H 0.0 **** 0.0
44575 H 58.6644 -9.73649 35.6786 H 0.0 **** 0.0
44576 H 58.1693 -8.98771 34.1615 H 0.0 **** 0.0
44577 H 57.3658 -11.3471 34.4295 H 0.0 **** 0.0
44578 H 50.503 -9.30644 36.9065 H 0.0 **** 0.0
44579 H 50.1069 -9.29557 32.7461 H 0.0 **** 0.0
44580 H 48.9552 -10.7026 32.5861 H 0.0 **** 0.0
44581 H 51.0404 -11.6133 33.4999 H 0.0 **** 0.0
44582 H 46.9959 -8.94285 32.7626 H 0.0 **** 0.0
44583 H 46.6273 -10.3039 33.9326 H 0.0 **** 0.0
44584 H 45.1716 -8.70301 34.5651 H 0.0 **** 0.0
44585 H 46.2917 -7.33602 34.3377 H 0.0 **** 0.0
44586 H 48.8862 -9.71432 38.1721 H 0.0 **** 0.0
44587 H 48.9738 -7.89189 38.2171 H 0.0 **** 0.0
44588 H 46.7311 -9.8031 38.8643 H 0.0 **** 0.0
44589 H 46.6125 -6.64266 38.5656 H 0.0 **** 0.0
44590 H 45.3478 -7.65706 39.2588 H 0.0 **** 0.0
44591 H 45.1704 -6.98574 36.8052 H 0.0 **** 0.0
44592 H 44.8244 -8.74886 37.2213 H 0.0 **** 0.0
44593 H 49.6675 -6.4518 36.3722 H 0.0 **** 0.0
44594 H 51.4684 -1.48371 38.3319 H 0.0 **** 0.0
44595 H 50.4537 0.788632 36.0827 H 0.0 **** 0.0
44596 H 57.1192 -3.51412 35.7925 H 0.0 **** 0.0
44597 H 50.2652 5.58943 35.7676 H 0.0 **** 0.0
44598 H 49.3107 3.60302 35.8094 H 0.0 **** 0.0
44599 H 50.1022 2.98912 32.9207 H 0.0 **** 0.0
44600 H 47.8919 4.10998 33.1629 H 0.0 **** 0.0
44601 H 47.2721 3.18495 34.5656 H 0.0 **** 0.0
44602 H 47.3739 5.28947 35.9266 H 0.0 **** 0.0
44603 H 46.2043 5.42957 34.6094 H 0.0 **** 0.0
44604 H 47.4517 6.79056 33.2702 H 0.0 **** 0.0
44605 H 49.5576 5.95447 32.7781 H 0.0 **** 0.0
44606 H 50.806 7.70058 34.9197 H 0.0 **** 0.0
44607 H 51.1982 7.46489 33.1835 H 0.0 **** 0.0
44608 H 49.1738 8.6995 32.5265 H 0.0 **** 0.0
44609 H 50.1776 9.69986 33.5941 H 0.0 **** 0.0
44610 H 47.5156 9.40694 33.9087 H 0.0 **** 0.0
44611 H 48.6008 9.70291 35.2722 H 0.0 **** 0.0
44612 H 48.4304 7.52439 35.989 H 0.0 **** 0.0
44613 H 60.2746 -1.94273 35.3499 H 0.0 **** 0.0
44614 H 60.2861 -1.50903 37.703 H 0.0 **** 0.0
44615 H 60.3255 1.51262 37.3878 H 0.0 **** 0.0
44616 H 60.6585 0.593695 38.8654 H 0.0 **** 0.0
44617 H 62.8932 -0.0302886 38.0866 H 0.0 **** 0.0
44618 H 62.6302 1.74258 37.802 H 0.0 **** 0.0
44619 H 63.5904 0.709097 35.8775 H 0.0 **** 0.0
44620 H 61.9825 1.39208 35.4911 H 0.0 **** 0.0
44621 H 62.6381 -1.55044 36.0164 H 0.0 **** 0.0
44622 H 62.3216 -0.875417 34.3911 H 0.0 **** 0.0
44623 H 59.6209 2.16176 33.4254 H 0.0 **** 0.0
44624 H 59.755 4.65997 32.9424 H 0.0 **** 0.0
44625 H 53.0295 6.60744 35.1174 H 0.0 **** 0.0
44626 H 53.0824 8.91382 33.4448 H 0.0 **** 0.0
44627 H 54.4206 10.0704 32.2918 H 0.0 **** 0.0
44628 H 55.2338 11.6868 34.8418 H 0.0 **** 0.0
44629 H 52.6213 11.5856 33.3059 H 0.0 **** 0.0
44630 H 52.9703 12.7783 34.589 H 0.0 **** 0.0
44631 H 51.6524 10.5294 35.3204 H 0.0 **** 0.0
44632 H 52.8897 11.3068 36.3662 H 0.0 **** 0.0
44633 H 53.0027 8.68113 36.0381 H 0.0 **** 0.0
44634 H 54.5252 9.6459 36.0108 H 0.0 **** 0.0
44635 H 48.5852 -9.1047 40.5445 H 0.0 **** 0.0
44636 H 48.2603 -7.18584 41.8566 H 0.0 **** 0.0
44637 H 46.7538 -6.73782 41.0996 H 0.0 **** 0.0
44638 H 48.2587 -6.5732 40.1483 H 0.0 **** 0.0
44639 H 45.8683 -10.0275 40.8889 H 0.0 **** 0.0
44640 H 46.0073 -8.73247 42.0309 H 0.0 **** 0.0
44641 H 47.1863 -10.0954 42.012 H 0.0 **** 0.0
44642 H 48.9445 1.21881 33.3573 H 0.0 **** 0.0
44643 H 60.673 8.07654 31.5759 H 0.0 **** 0.0
44644 H 62.2814 9.9875 31.3496 H 0.0 **** 0.0
44645 H 62.6134 12.503 30.7587 H 0.0 **** 0.0
44646 H 62.9557 14.9754 30.0568 H 0.0 **** 0.0
44647 H 61.9917 17.2656 29.7361 H 0.0 **** 0.0
44648 H 57.6264 19.3025 30.4715 H 0.0 **** 0.0
44649 H 59.9269 18.8354 29.7387 H 0.0 **** 0.0
44650 H 53.6677 14.0922 32.6524 H 0.0 **** 0.0
44651 H 53.191 16.7442 31.7441 H 0.0 **** 0.0
44652 H 53.2531 16.189 33.5124 H 0.0 **** 0.0
44653 H 53.7035 18.4474 34.228 H 0.0 **** 0.0
44654 H 52.2818 18.4793 33.1205 H 0.0 **** 0.0
44655 H 53.9286 20.3599 32.7739 H 0.0 **** 0.0
44656 H 53.7121 19.3407 31.3716 H 0.0 **** 0.0
44657 C 100.1 103.074 52.8435 C 0.0 **** 0.0
44658 C 98.833 102.402 52.3271 C 0.0 **** 0.0
44659 C 98.1635 101.553 53.4462 C 0.0 **** 0.0
44660 C 99.1735 100.57 54.0978 C 0.0 **** 0.0
44661 C 100.618 101.05 53.7882 C 0.0 **** 0.0
44662 O 100.648 102.429 53.9552 O 0.0 **** 0.0
44663 C 98.9702 99.12 53.6109 C 0.0 **** 0.0
44664 C 97.5578 98.6137 54.0856 C 0.0 **** 0.0
44665 C 96.4373 99.6811 53.798 C 0.0 **** 0.0
44666 C 96.9483 100.842 52.8797 C 0.0 **** 0.0
44667 O 97.553 98.3271 55.498 O 0.0 **** 0.0
44668 C 98.5397 97.3794 55.9484 C 0.0 **** 0.0
44669 C 99.9702 97.7601 55.4658 C 0.0 **** 0.0
44670 C 100.055 98.1437 53.9546 C 0.0 **** 0.0
44671 C 100.911 96.571 55.6437 C 0.0 **** 0.0
44672 C 100.449 95.3139 55.0641 C 0.0 **** 0.0
44673 C 99.2064 94.9267 55.8722 C 0.0 **** 0.0
44674 C 98.1151 95.946 55.5329 C 0.0 **** 0.0
44675 C 98.8071 93.4339 55.797 C 0.0 **** 0.0
44676 C 99.4819 92.7317 54.6427 C 0.0 **** 0.0
44677 C 101.01 92.8327 54.6561 C 0.0 **** 0.0
44678 C 101.533 94.2186 54.9519 C 0.0 **** 0.0
44679 C 102.468 94.1998 56.1446 C 0.0 **** 0.0
44680 C 103.155 95.5784 56.1861 C 0.0 **** 0.0
44681 C 102.156 96.7083 56.2715 C 0.0 **** 0.0
44682 O 101.518 92.4616 53.3792 O 0.0 **** 0.0
44683 C 101.406 91.1029 53.3881 C 0.0 **** 0.0
44684 C 99.9493 90.6726 53.3574 C 0.0 **** 0.0
44685 C 99.1615 91.2518 54.5314 C 0.0 **** 0.0
44686 C 96.7639 95.4878 56.0355 C 0.0 **** 0.0
44687 C 96.2968 94.215 55.4097 C 0.0 **** 0.0
44688 C 97.2701 93.0908 55.8795 C 0.0 **** 0.0
44689 C 94.8134 93.9007 55.6212 C 0.0 **** 0.0
44690 C 94.1936 94.3831 56.7142 C 0.0 **** 0.0
44691 C 94.8098 95.4693 57.6224 C 0.0 **** 0.0
44692 C 96.1132 96.0394 57.1031 C 0.0 **** 0.0
44693 C 92.799 93.9422 57.0587 C 0.0 **** 0.0
44694 C 92.4899 92.5413 56.5929 C 0.0 **** 0.0
44695 C 92.972 92.3072 55.1702 C 0.0 **** 0.0
44696 C 94.0793 92.9712 54.7208 C 0.0 **** 0.0
44697 C 94.5887 92.7269 53.2951 C 0.0 **** 0.0
44698 C 93.6291 92.0431 52.2961 C 0.0 **** 0.0
44699 C 92.8384 90.9709 53.0318 C 0.0 **** 0.0
44700 C 92.1035 91.5036 54.2561 C 0.0 **** 0.0
44701 C 97.6494 90.963 54.4344 C 0.0 **** 0.0
44702 C 96.9039 91.6128 55.6133 C 0.0 **** 0.0
44703 C 99.7992 89.1162 53.2235 C 0.0 **** 0.0
44704 C 98.8228 88.5275 54.2307 C 0.0 **** 0.0
44705 S 97.1185 89.2457 54.0507 S 0.0 **** 0.0
44706 C 98.745 87.0328 54.2692 C 0.0 **** 0.0
44707 C 100.133 86.4247 54.3511 C 0.0 **** 0.0
44708 C 101.02 86.8761 53.1618 C 0.0 **** 0.0
44709 C 101.165 88.3731 53.2624 C 0.0 **** 0.0
44710 C 102.375 86.1325 53.1382 C 0.0 **** 0.0
44711 C 102.218 84.6289 53.1475 C 0.0 **** 0.0
44712 C 101.321 84.1323 54.3121 C 0.0 **** 0.0
44713 C 100.005 84.9021 54.3673 C 0.0 **** 0.0
44714 C 100.956 82.6523 54.1585 C 0.0 **** 0.0
44715 C 102.282 81.8508 53.9301 C 0.0 **** 0.0
44716 C 103.373 82.4366 53.0281 C 0.0 **** 0.0
44717 C 103.558 83.9432 53.1542 C 0.0 **** 0.0
44718 C 102.113 88.934 52.1756 C 0.0 **** 0.0
44719 C 102.27 90.5253 52.2622 C 0.0 **** 0.0
44720 C 103.25 86.6785 52.0473 C 0.0 **** 0.0
44721 C 103.523 88.1885 52.1926 C 0.0 **** 0.0
44722 C 104.383 84.3768 51.9191 C 0.0 **** 0.0
44723 C 104.591 85.901 52.0099 C 0.0 **** 0.0
44724 C 104.772 81.7754 53.1509 C 0.0 **** 0.0
44725 C 105.602 82.1206 51.9597 C 0.0 **** 0.0
44726 C 105.73 83.6436 51.9424 C 0.0 **** 0.0
44727 O 102.805 81.3995 55.1508 O 0.0 **** 0.0
44728 C 101.98 80.3339 55.6012 C 0.0 **** 0.0
44729 C 100.443 80.6455 55.5373 C 0.0 **** 0.0
44730 C 100.253 82.1706 55.4413 C 0.0 **** 0.0
44731 C 99.6512 80.1068 56.7313 C 0.0 **** 0.0
44732 C 100.203 78.7106 57.0528 C 0.0 **** 0.0
44733 C 101.695 78.7496 57.5332 C 0.0 **** 0.0
44734 C 102.429 80.0234 57.0143 C 0.0 **** 0.0
44735 C 104.014 79.8251 57.1331 C 0.0 **** 0.0
44736 C 104.376 78.7076 58.0937 C 0.0 **** 0.0
44737 C 103.74 77.4199 57.6349 C 0.0 **** 0.0
44738 N 102.381 77.5475 57.0971 N 0.0 **** 0.0
44739 C 104.619 88.7742 51.2823 C 0.0 **** 0.0
44740 C 105.91 87.9202 51.2786 C 0.0 **** 0.0
44741 C 105.556 86.4321 50.9216 C 0.0 **** 0.0
44742 O 106.825 88.4823 50.3435 O 0.0 **** 0.0
44743 C 107.254 89.7349 50.9207 C 0.0 **** 0.0
44744 C 106.046 90.6505 51.1291 C 0.0 **** 0.0
44745 O 105.014 90.0328 51.875 O 0.0 **** 0.0
44746 C 105.553 91.1674 49.8024 C 0.0 **** 0.0
44747 C 106.646 92.0772 49.1079 C 0.0 **** 0.0
44748 C 108.117 91.8349 49.5635 C 0.0 **** 0.0
44749 C 108.383 90.3717 50.0318 C 0.0 **** 0.0
44750 C 106.607 84.0817 50.781 C 0.0 **** 0.0
44751 C 106.871 85.5902 50.787 C 0.0 **** 0.0
44752 C 106.965 81.4678 52.1559 C 0.0 **** 0.0
44753 C 107.971 81.9016 51.103 C 0.0 **** 0.0
44754 C 107.975 83.4713 50.937 C 0.0 **** 0.0
44755 C 106.81 79.9312 52.2067 C 0.0 **** 0.0
44756 C 105.983 79.564 53.4111 C 0.0 **** 0.0
44757 C 104.664 80.2262 53.2169 C 0.0 **** 0.0
44758 O 109.205 81.5087 51.5278 O 0.0 **** 0.0
44759 C 109.297 80.0778 51.4317 C 0.0 **** 0.0
44760 C 108.146 79.2727 52.1188 C 0.0 **** 0.0
44761 C 105.913 78.0952 53.8215 C 0.0 **** 0.0
44762 C 107.284 77.3795 53.689 C 0.0 **** 0.0
44763 C 108.454 78.2276 53.2233 C 0.0 **** 0.0
44764 C 107.191 76.0479 52.9035 C 0.0 **** 0.0
44765 C 105.981 75.1645 53.376 C 0.0 **** 0.0
44766 C 104.612 75.9264 53.5217 C 0.0 **** 0.0
44767 C 104.745 77.3313 53.0945 C 0.0 **** 0.0
44768 C 109.723 77.4441 52.8429 C 0.0 **** 0.0
44769 C 110.721 78.1546 51.9602 C 0.0 **** 0.0
44770 C 110.605 79.6663 52.0781 C 0.0 **** 0.0
44771 C 108.554 75.283 52.9182 C 0.0 **** 0.0
44772 C 109.521 76.1288 52.1505 C 0.0 **** 0.0
44773 C 94.3909 91.5406 50.9909 C 0.0 **** 0.0
44774 C 95.432 90.376 51.2161 C 0.0 **** 0.0
44775 C 93.3973 91.0684 49.9558 C 0.0 **** 0.0
44776 O 98.8606 82.4793 55.4268 O 0.0 **** 0.0
44777 C 111.87 80.3583 51.4904 C 0.0 **** 0.0
44778 C 113.223 79.7628 52.061 C 0.0 **** 0.0
44779 C 113.273 78.2566 51.791 C 0.0 **** 0.0
44780 C 112.041 77.5215 52.3838 C 0.0 **** 0.0
44781 C 112.04 76.1592 51.7319 C 0.0 **** 0.0
44782 C 113.296 75.3494 52.0878 C 0.0 **** 0.0
44783 C 114.583 76.1489 51.7879 C 0.0 **** 0.0
44784 C 114.534 77.5677 52.3713 C 0.0 **** 0.0
44785 C 115.862 75.3339 52.0924 C 0.0 **** 0.0
44786 C 115.729 73.8012 51.7787 C 0.0 **** 0.0
44787 C 114.52 73.4937 50.8416 C 0.0 **** 0.0
44788 C 113.21 73.8966 51.5356 C 0.0 **** 0.0
44789 C 112.004 73.6906 50.5558 C 0.0 **** 0.0
44790 C 110.653 74.2223 51.1184 C 0.0 **** 0.0
44791 C 110.83 75.3554 52.0709 C 0.0 **** 0.0
44792 C 111.857 72.274 50.0464 C 0.0 **** 0.0
44793 C 113.192 71.7733 49.4436 C 0.0 **** 0.0
44794 C 114.359 72.0129 50.4248 C 0.0 **** 0.0
44795 C 108.507 73.8673 52.2762 C 0.0 **** 0.0
44796 C 109.887 73.2877 52.0598 C 0.0 **** 0.0
44797 C 111.218 71.346 51.0877 C 0.0 **** 0.0
44798 C 109.842 71.8442 51.5951 C 0.0 **** 0.0
44799 C 109.142 70.9096 52.6309 C 0.0 **** 0.0
44800 C 109.909 69.5629 52.8704 C 0.0 **** 0.0
44801 C 110.417 68.9164 51.5475 C 0.0 **** 0.0
44802 C 110.939 69.9529 50.5874 C 0.0 **** 0.0
44803 O 110.98 69.6778 49.4047 O 0.0 **** 0.0
44804 H 99.9418 104.163 53.0645 H 0.0 **** 0.0
44805 H 100.897 103.115 52.0871 H 0.0 **** 0.0
44806 H 98.0774 103.16 51.9992 H 0.0 **** 0.0
44807 H 99.092 101.786 51.3902 H 0.0 **** 0.0
44808 H 97.8754 102.272 54.2065 H 0.0 **** 0.0
44809 H 98.9296 100.621 55.1961 H 0.0 **** 0.0
44810 H 100.956 100.752 52.7402 H 0.0 **** 0.0
44811 H 101.35 100.668 54.5157 H 0.0 **** 0.0
44812 H 98.9777 99.1648 52.4974 H 0.0 **** 0.0
44813 H 97.266 97.6445 53.5663 H 0.0 **** 0.0
44814 H 96.0357 100.09 54.7152 H 0.0 **** 0.0
44815 H 95.5966 99.2607 53.1898 H 0.0 **** 0.0
44816 H 96.1134 101.571 52.7684 H 0.0 **** 0.0
44817 H 97.1442 100.444 51.8488 H 0.0 **** 0.0
44818 H 98.5494 97.4896 57.0667 H 0.0 **** 0.0
44819 H 100.283 98.6276 56.0477 H 0.0 **** 0.0
44820 H 99.9603 97.2855 53.3548 H 0.0 **** 0.0
44821 H 101.085 98.5406 53.7245 H 0.0 **** 0.0
44822 H 98.0527 95.9352 54.3869 H 0.0 **** 0.0
44823 H 101.861 94.0848 57.0006 H 0.0 **** 0.0
44824 H 103.287 93.4605 56.1112 H 0.0 **** 0.0
44825 H 103.76 95.6914 55.2649 H 0.0 **** 0.0
44826 H 103.813 95.656 57.044 H 0.0 **** 0.0
44827 H 102.401 97.5228 56.8452 H 0.0 **** 0.0
44828 H 96.4428 94.2896 54.3139 H 0.0 **** 0.0
44829 H 95.0491 95.0209 58.6055 H 0.0 **** 0.0
44830 H 94.1322 96.3557 57.7337 H 0.0 **** 0.0
44831 H 96.5281 96.8892 57.6073 H 0.0 **** 0.0
44832 H 92.582 94.034 58.1604 H 0.0 **** 0.0
44833 H 92.1305 94.65 56.5726 H 0.0 **** 0.0
44834 H 91.427 92.2767 56.6504 H 0.0 **** 0.0
44835 H 92.9618 91.8043 57.3071 H 0.0 **** 0.0
44836 H 94.8425 93.714 52.8496 H 0.0 **** 0.0
44837 H 95.5438 92.1732 53.3579 H 0.0 **** 0.0
44838 H 92.9485 92.8535 51.9898 H 0.0 **** 0.0
44839 H 93.5637 90.1773 53.3483 H 0.0 **** 0.0
44840 H 92.0546 90.5565 52.3376 H 0.0 **** 0.0
44841 H 91.5891 90.6822 54.8084 H 0.0 **** 0.0
44842 H 91.3234 92.2095 53.8623 H 0.0 **** 0.0
44843 H 97.063 91.0363 56.548 H 0.0 **** 0.0
44844 H 98.2622 86.8197 55.2064 H 0.0 **** 0.0
44845 H 99.3741 84.62 53.4709 H 0.0 **** 0.0
44846 H 102.082 91.0035 51.2667 H 0.0 **** 0.0
44847 H 102.212 79.5064 54.9224 H 0.0 **** 0.0
44848 H 99.9871 80.3129 54.6022 H 0.0 **** 0.0
44849 H 100.781 82.623 56.3478 H 0.0 **** 0.0
44850 H 99.756 80.7756 57.6413 H 0.0 **** 0.0
44851 H 98.5945 80.0099 56.4254 H 0.0 **** 0.0
44852 H 100.013 77.9595 56.2491 H 0.0 **** 0.0
44853 H 99.524 78.2715 57.8671 H 0.0 **** 0.0
44854 H 101.683 78.7631 58.6384 H 0.0 **** 0.0
44855 H 102.101 80.85 57.6713 H 0.0 **** 0.0
44856 H 104.343 79.6264 56.1196 H 0.0 **** 0.0
44857 H 104.53 80.7648 57.4314 H 0.0 **** 0.0
44858 H 104.064 78.9789 59.1176 H 0.0 **** 0.0
44859 H 105.491 78.631 58.1642 H 0.0 **** 0.0
44860 H 103.754 76.6299 58.4335 H 0.0 **** 0.0
44861 H 104.405 76.9405 56.8801 H 0.0 **** 0.0
44862 H 102.446 77.5178 56.0641 H 0.0 **** 0.0
44863 H 107.733 89.4933 51.9341 H 0.0 **** 0.0
44864 H 106.308 91.544 51.7011 H 0.0 **** 0.0
44865 H 105.307 90.3499 49.0981 H 0.0 **** 0.0
44866 H 104.626 91.7135 50.0044 H 0.0 **** 0.0
44867 H 106.372 93.1491 49.3427 H 0.0 **** 0.0
44868 H 106.507 91.9699 47.9969 H 0.0 **** 0.0
44869 H 108.395 92.5741 50.3281 H 0.0 **** 0.0
44870 H 108.779 92.0345 48.7274 H 0.0 **** 0.0
44871 H 109.341 90.3051 50.5436 H 0.0 **** 0.0
44872 H 108.49 89.7662 49.0833 H 0.0 **** 0.0
44873 H 107.508 85.8984 49.959 H 0.0 **** 0.0
44874 H 108.613 83.7549 50.111 H 0.0 **** 0.0
44875 H 104.129 79.8467 52.3089 H 0.0 **** 0.0
44876 H 105.629 78.0889 54.9411 H 0.0 **** 0.0
44877 H 107.564 77.0958 54.7368 H 0.0 **** 0.0
44878 H 107.012 76.3106 51.8276 H 0.0 **** 0.0
44879 H 106.276 74.7656 54.3782 H 0.0 **** 0.0
44880 H 105.857 74.3019 52.6827 H 0.0 **** 0.0
44881 H 104.228 75.883 54.5808 H 0.0 **** 0.0
44882 H 103.872 75.4582 52.8385 H 0.0 **** 0.0
44883 H 103.775 77.7815 53.4226 H 0.0 **** 0.0
44884 H 104.851 77.3322 52.0438 H 0.0 **** 0.0
44885 H 94.8937 92.4178 50.5475 H 0.0 **** 0.0
44886 H 96.3259 90.8593 51.6473 H 0.0 **** 0.0
44887 H 95.0852 89.6081 51.8828 H 0.0 **** 0.0
44888 H 95.696 89.8092 50.3131 H 0.0 **** 0.0
44889 H 92.7023 91.9115 49.7453 H 0.0 **** 0.0
44890 H 92.8234 90.2435 50.366 H 0.0 **** 0.0
44891 H 93.9385 90.6965 49.0572 H 0.0 **** 0.0
44892 H 98.6219 82.9466 56.2793 H 0.0 **** 0.0
44893 H 111.831 81.458 51.5987 H 0.0 **** 0.0
44894 H 114.12 80.2924 51.5972 H 0.0 **** 0.0
44895 H 114.555 77.5224 53.4919 H 0.0 **** 0.0
44896 H 116.697 75.7929 51.5553 H 0.0 **** 0.0
44897 H 116.627 73.3429 51.3758 H 0.0 **** 0.0
44898 H 113.133 70.7218 49.0769 H 0.0 **** 0.0
44899 H 115.328 71.662 49.9941 H 0.0 **** 0.0
44900 H 107.891 73.1976 52.8945 H 0.0 **** 0.0
44901 H 109.088 71.436 53.6226 H 0.0 **** 0.0
44902 H 108.063 70.738 52.3267 H 0.0 **** 0.0
44903 H 109.24 68.8434 53.3853 H 0.0 **** 0.0
44904 H 110.78 69.8084 53.5818 H 0.0 **** 0.0
44905 H 109.589 68.36 51.0193 H 0.0 **** 0.0
44906 H 111.186 68.1277 51.78 H 0.0 **** 0.0
44907 C 71.0318 87.9991 34.1612 C 0.0 **** 0.0
44908 C 71.7225 87.8281 35.5185 C 0.0 **** 0.0
44909 C 70.695 87.582 36.6449 C 0.0 **** 0.0
44910 C 69.4811 88.5809 36.5215 C 0.0 **** 0.0
44911 C 69.6543 89.5358 35.2523 C 0.0 **** 0.0
44912 O 69.8421 88.7654 34.0976 O 0.0 **** 0.0
44913 C 69.3233 89.3825 37.8307 C 0.0 **** 0.0
44914 C 69.2116 88.4459 39.0642 C 0.0 **** 0.0
44915 C 70.3572 87.3874 39.1689 C 0.0 **** 0.0
44916 C 71.3538 87.513 38.0281 C 0.0 **** 0.0
44917 O 68.0158 87.7167 39.0697 O 0.0 **** 0.0
44918 C 66.8333 88.5199 39.1087 C 0.0 **** 0.0
44919 C 66.8168 89.5094 37.9031 C 0.0 **** 0.0
44920 C 68.1104 90.3449 37.8827 C 0.0 **** 0.0
44921 C 65.5172 90.3079 37.9641 C 0.0 **** 0.0
44922 C 65.0077 90.7927 39.2356 C 0.0 **** 0.0
44923 C 65.1857 89.8413 40.4423 C 0.0 **** 0.0
44924 C 66.5279 89.1178 40.513 C 0.0 **** 0.0
44925 C 64.8405 90.5846 41.7772 C 0.0 **** 0.0
44926 C 63.464 91.2164 41.6835 C 0.0 **** 0.0
44927 C 63.3453 92.0742 40.4288 C 0.0 **** 0.0
44928 C 63.5474 91.2161 39.1962 C 0.0 **** 0.0
44929 C 63.1209 91.8889 37.9051 C 0.0 **** 0.0
44930 C 63.4846 91.1206 36.6628 C 0.0 **** 0.0
44931 C 64.9018 90.6352 36.7241 C 0.0 **** 0.0
44932 O 62.0652 92.691 40.4222 O 0.0 **** 0.0
44933 C 62.1177 93.6989 41.4085 C 0.0 **** 0.0
44934 C 61.9973 93.0328 42.7997 C 0.0 **** 0.0
44935 C 63.2522 92.1197 42.958 C 0.0 **** 0.0
44936 C 66.3453 88.1 41.6683 C 0.0 **** 0.0
44937 C 66.1094 88.7242 43.0763 C 0.0 **** 0.0
44938 C 64.8337 89.6392 43.0113 C 0.0 **** 0.0
44939 C 65.914 87.6337 44.1591 C 0.0 **** 0.0
44940 C 65.5586 86.3522 43.8233 C 0.0 **** 0.0
44941 C 65.6949 85.7947 42.4522 C 0.0 **** 0.0
44942 C 66.2469 86.7623 41.4609 C 0.0 **** 0.0
44943 C 65.0101 85.388 44.8752 C 0.0 **** 0.0
44944 C 64.6416 86.0675 46.1949 C 0.0 **** 0.0
44945 C 65.6445 87.1034 46.5867 C 0.0 **** 0.0
44946 C 66.2401 87.8443 45.6219 C 0.0 **** 0.0
44947 C 67.2777 88.8722 46.0018 C 0.0 **** 0.0
44948 C 67.8145 88.7181 47.4669 C 0.0 **** 0.0
44949 C 66.6172 88.6173 48.4187 C 0.0 **** 0.0
44950 C 65.919 87.2976 48.1071 C 0.0 **** 0.0
44951 C 63.3217 91.2911 44.2482 C 0.0 **** 0.0
44952 C 64.6274 90.4561 44.3075 C 0.0 **** 0.0
44953 C 62.0741 94.1273 43.882 C 0.0 **** 0.0
44954 C 61.8089 93.4345 45.2071 C 0.0 **** 0.0
44955 S 63.3116 92.4737 45.6713 S 0.0 **** 0.0
44956 C 61.4285 94.4048 46.3261 C 0.0 **** 0.0
44957 C 61.8543 95.8845 46.0418 C 0.0 **** 0.0
44958 C 61.5283 96.4251 44.6076 C 0.0 **** 0.0
44959 C 61.2174 95.3397 43.623 C 0.0 **** 0.0
44960 C 60.3824 97.4915 44.5154 C 0.0 **** 0.0
44961 C 60.2115 98.3751 45.7977 C 0.0 **** 0.0
44962 C 61.4637 98.3639 46.6418 C 0.0 **** 0.0
44963 C 61.5388 96.9086 47.1729 C 0.0 **** 0.0
44964 C 61.3953 99.4205 47.8055 C 0.0 **** 0.0
44965 C 60.8542 100.795 47.3881 C 0.0 **** 0.0
44966 C 59.4348 100.672 46.7499 C 0.0 **** 0.0
44967 C 59.5538 99.7336 45.5178 C 0.0 **** 0.0
44968 C 61.3523 95.9805 42.1894 C 0.0 **** 0.0
44969 C 61.1387 94.8587 41.1788 C 0.0 **** 0.0
44970 C 60.6398 98.2587 43.2011 C 0.0 **** 0.0
44971 C 60.3951 97.2491 42.0176 C 0.0 **** 0.0
44972 C 60.102 100.434 44.2326 C 0.0 **** 0.0
44973 C 59.7736 99.5062 43.056 C 0.0 **** 0.0
44974 C 58.8833 102.092 46.4875 C 0.0 **** 0.0
44975 C 58.3491 102.231 45.0661 C 0.0 **** 0.0
44976 C 59.4768 101.845 44.0955 C 0.0 **** 0.0
44977 O 60.8006 101.596 48.5321 O 0.0 **** 0.0
44978 C 62.1171 102.0 48.8967 C 0.0 **** 0.0
44979 C 63.2428 101.095 48.3654 C 0.0 **** 0.0
44980 C 62.7289 99.6645 48.5383 C 0.0 **** 0.0
44981 C 64.6291 101.373 49.0148 C 0.0 **** 0.0
44982 C 64.6921 102.645 49.8215 C 0.0 **** 0.0
44983 C 63.6617 102.548 50.9153 C 0.0 **** 0.0
44984 C 62.2021 102.224 50.4395 C 0.0 **** 0.0
44985 C 61.1819 103.235 50.993 C 0.0 **** 0.0
44986 C 61.3746 103.522 52.4705 C 0.0 **** 0.0
44987 C 62.8706 103.713 52.8429 C 0.0 **** 0.0
44988 N 63.7796 103.791 51.652 N 0.0 **** 0.0
44989 C 60.3993 97.8931 40.6073 C 0.0 **** 0.0
44990 C 59.6967 99.3235 40.4759 C 0.0 **** 0.0
44991 C 60.1259 100.169 41.6923 C 0.0 **** 0.0
44992 O 60.0472 100.011 39.2509 O 0.0 **** 0.0
44993 C 60.5579 99.1404 38.2642 C 0.0 **** 0.0
44994 C 61.8051 98.2956 38.8071 C 0.0 **** 0.0
44995 O 61.7194 97.9785 40.1909 O 0.0 **** 0.0
44996 C 63.1612 99.0004 38.6445 C 0.0 **** 0.0
44997 C 63.0279 100.525 38.5014 C 0.0 **** 0.0
44998 C 62.1463 100.873 37.2653 C 0.0 **** 0.0
44999 C 60.939 99.9457 37.0243 C 0.0 **** 0.0
45000 C 59.0185 102.223 42.7101 C 0.0 **** 0.0
45001 C 59.9287 101.69 41.6049 C 0.0 **** 0.0
45002 C 57.9949 103.736 44.8941 C 0.0 **** 0.0
45003 C 57.6689 104.205 43.4707 C 0.0 **** 0.0
45004 C 58.8103 103.759 42.5387 C 0.0 **** 0.0
45005 C 56.8531 104.152 45.7906 C 0.0 **** 0.0
45006 C 57.4018 104.032 47.2237 C 0.0 **** 0.0
45007 C 57.8683 102.56 47.5309 C 0.0 **** 0.0
45008 O 57.6037 105.567 43.5268 O 0.0 **** 0.0
45009 C 56.3246 105.883 44.0068 C 0.0 **** 0.0
45010 C 56.2296 105.53 45.4705 C 0.0 **** 0.0
45011 C 56.4608 104.677 48.2778 C 0.0 **** 0.0
45012 C 56.2747 106.211 47.9037 C 0.0 **** 0.0
45013 C 56.7593 106.609 46.4524 C 0.0 **** 0.0
45014 C 56.8421 107.238 48.9564 C 0.0 **** 0.0
45015 C 56.3077 106.87 50.4029 C 0.0 **** 0.0
45016 C 56.0954 105.384 50.693 C 0.0 **** 0.0
45017 C 56.9049 104.488 49.7491 C 0.0 **** 0.0
45018 C 56.3181 107.992 46.1164 C 0.0 **** 0.0
45019 C 56.5671 108.394 44.6584 C 0.0 **** 0.0
45020 C 55.9763 107.352 43.6339 C 0.0 **** 0.0
45021 C 56.4864 108.669 48.5906 C 0.0 **** 0.0
45022 C 56.7865 109.029 47.1179 C 0.0 **** 0.0
45023 C 68.7259 89.9465 47.8218 C 0.0 **** 0.0
45024 C 68.0162 91.1866 48.5031 C 0.0 **** 0.0
45025 C 69.8431 89.5619 48.7768 C 0.0 **** 0.0
45026 O 63.7765 98.7844 48.2634 O 0.0 **** 0.0
45027 C 54.4953 107.472 43.5862 C 0.0 **** 0.0
45028 C 54.0018 108.886 43.2222 C 0.0 **** 0.0
45029 C 55.111 109.883 43.1722 C 0.0 **** 0.0
45030 C 56.0214 109.822 44.3753 C 0.0 **** 0.0
45031 C 55.3521 110.497 45.6082 C 0.0 **** 0.0
45032 C 54.905 111.949 45.3159 C 0.0 **** 0.0
45033 C 53.9771 112.039 44.1135 C 0.0 **** 0.0
45034 C 54.5467 111.32 42.9047 C 0.0 **** 0.0
45035 C 53.6675 113.465 43.7721 C 0.0 **** 0.0
45036 C 52.9412 114.157 44.9743 C 0.0 **** 0.0
45037 C 53.8577 114.088 46.2062 C 0.0 **** 0.0
45038 C 54.2885 112.615 46.5264 C 0.0 **** 0.0
45039 C 55.2401 112.632 47.7336 C 0.0 **** 0.0
45040 C 55.6986 111.187 48.0604 C 0.0 **** 0.0
45041 C 56.2488 110.463 46.823 C 0.0 **** 0.0
45042 C 54.6674 113.342 48.9711 C 0.0 **** 0.0
45043 C 54.2745 114.757 48.5272 C 0.0 **** 0.0
45044 C 53.2362 114.713 47.432 C 0.0 **** 0.0
45045 C 57.053 109.736 49.5681 C 0.0 **** 0.0
45046 C 56.6532 111.17 49.2225 C 0.0 **** 0.0
45047 C 55.7803 113.393 50.0599 C 0.0 **** 0.0
45048 C 56.0995 111.912 50.4683 C 0.0 **** 0.0
45049 C 57.1262 111.896 51.5945 C 0.0 **** 0.0
45050 C 56.5177 112.588 52.8276 C 0.0 **** 0.0
45051 C 56.2397 114.049 52.5251 C 0.0 **** 0.0
45052 C 55.3421 114.16 51.3176 C 0.0 **** 0.0
45053 O 54.3475 114.894 51.3567 O 0.0 **** 0.0
45054 H 70.8695 87.0553 33.7171 H 0.0 **** 0.0
45055 H 71.6941 88.4444 33.3893 H 0.0 **** 0.0
45056 H 72.4682 86.9778 35.4384 H 0.0 **** 0.0
45057 H 72.2422 88.7989 35.7367 H 0.0 **** 0.0
45058 H 70.2766 86.5958 36.4326 H 0.0 **** 0.0
45059 H 68.616 87.9402 36.2578 H 0.0 **** 0.0
45060 H 70.553 90.2452 35.372 H 0.0 **** 0.0
45061 H 68.747 90.1453 35.1483 H 0.0 **** 0.0
45062 H 70.2426 90.0252 37.9705 H 0.0 **** 0.0
45063 H 69.2858 89.0474 40.0035 H 0.0 **** 0.0
45064 H 69.9777 86.3319 39.1081 H 0.0 **** 0.0
45065 H 70.8403 87.4605 40.1512 H 0.0 **** 0.0
45066 H 71.9466 86.5613 38.1227 H 0.0 **** 0.0
45067 H 72.0837 88.3627 38.2081 H 0.0 **** 0.0
45068 H 66.0123 87.837 38.9434 H 0.0 **** 0.0
45069 H 66.7891 88.9133 36.9697 H 0.0 **** 0.0
45070 H 68.1681 90.9121 38.8454 H 0.0 **** 0.0
45071 H 68.1835 91.1204 37.1558 H 0.0 **** 0.0
45072 H 67.3206 89.8325 40.7976 H 0.0 **** 0.0
45073 H 62.0375 92.064 37.9372 H 0.0 **** 0.0
45074 H 63.5495 92.877 37.8228 H 0.0 **** 0.0
45075 H 63.3342 91.7201 35.7259 H 0.0 **** 0.0
45076 H 62.794 90.2469 36.6683 H 0.0 **** 0.0
45077 H 65.3848 90.4533 35.7912 H 0.0 **** 0.0
45078 H 67.0103 89.3212 43.3005 H 0.0 **** 0.0
45079 H 64.7123 85.4697 42.0924 H 0.0 **** 0.0
45080 H 66.3877 84.891 42.4831 H 0.0 **** 0.0
45081 H 66.4472 86.3175 40.53 H 0.0 **** 0.0
45082 H 64.0897 84.9176 44.4997 H 0.0 **** 0.0
45083 H 65.8236 84.6058 45.0006 H 0.0 **** 0.0
45084 H 64.5625 85.2706 46.948 H 0.0 **** 0.0
45085 H 63.659 86.5287 46.1149 H 0.0 **** 0.0
45086 H 68.1451 88.7929 45.3363 H 0.0 **** 0.0
45087 H 66.8301 89.8888 45.8894 H 0.0 **** 0.0
45088 H 68.4554 87.7877 47.5497 H 0.0 **** 0.0
45089 H 65.8666 89.3995 48.3567 H 0.0 **** 0.0
45090 H 66.9453 88.6257 49.5191 H 0.0 **** 0.0
45091 H 64.9461 87.2384 48.5955 H 0.0 **** 0.0
45092 H 66.6031 86.4927 48.4131 H 0.0 **** 0.0
45093 H 64.5289 89.8147 45.2002 H 0.0 **** 0.0
45094 H 61.9083 94.0417 47.2639 H 0.0 **** 0.0
45095 H 62.151 96.7978 48.1013 H 0.0 **** 0.0
45096 H 61.2848 95.2242 40.1583 H 0.0 **** 0.0
45097 H 62.3164 103.003 48.4773 H 0.0 **** 0.0
45098 H 63.3834 101.355 47.3124 H 0.0 **** 0.0
45099 H 62.4138 99.6061 49.632 H 0.0 **** 0.0
45100 H 64.8815 100.519 49.7013 H 0.0 **** 0.0
45101 H 65.4142 101.339 48.2217 H 0.0 **** 0.0
45102 H 64.4932 103.515 49.203 H 0.0 **** 0.0
45103 H 65.6601 102.76 50.319 H 0.0 **** 0.0
45104 H 63.9887 101.756 51.6026 H 0.0 **** 0.0
45105 H 61.9412 101.277 50.9658 H 0.0 **** 0.0
45106 H 61.2752 104.176 50.4173 H 0.0 **** 0.0
45107 H 60.1304 102.879 50.8012 H 0.0 **** 0.0
45108 H 60.9624 102.661 53.0627 H 0.0 **** 0.0
45109 H 60.6996 104.387 52.7029 H 0.0 **** 0.0
45110 H 63.2076 102.847 53.4765 H 0.0 **** 0.0
45111 H 63.0489 104.67 53.4497 H 0.0 **** 0.0
45112 H 63.3954 104.594 51.0716 H 0.0 **** 0.0
45113 H 59.7682 98.3866 38.0247 H 0.0 **** 0.0
45114 H 61.7966 97.3716 38.2044 H 0.0 **** 0.0
45115 H 63.8416 98.8499 39.5185 H 0.0 **** 0.0
45116 H 63.7211 98.5545 37.7968 H 0.0 **** 0.0
45117 H 64.0071 101.023 38.4349 H 0.0 **** 0.0
45118 H 62.5522 100.967 39.4295 H 0.0 **** 0.0
45119 H 62.7396 100.95 36.3065 H 0.0 **** 0.0
45120 H 61.8783 101.917 37.2773 H 0.0 **** 0.0
45121 H 61.2068 99.251 36.1992 H 0.0 **** 0.0
45122 H 60.0706 100.533 36.7384 H 0.0 **** 0.0
45123 H 60.8548 102.289 41.4018 H 0.0 **** 0.0
45124 H 59.6983 104.339 42.8383 H 0.0 **** 0.0
45125 H 58.3522 102.544 48.4919 H 0.0 **** 0.0
45126 H 55.4733 104.168 48.1684 H 0.0 **** 0.0
45127 H 55.1907 106.32 47.8018 H 0.0 **** 0.0
45128 H 57.947 107.19 48.9697 H 0.0 **** 0.0
45129 H 55.382 107.467 50.6996 H 0.0 **** 0.0
45130 H 57.0433 107.301 51.0923 H 0.0 **** 0.0
45131 H 55.0332 105.246 50.586 H 0.0 **** 0.0
45132 H 56.279 105.19 51.7418 H 0.0 **** 0.0
45133 H 56.8062 103.443 50.1269 H 0.0 **** 0.0
45134 H 57.9827 104.813 49.8166 H 0.0 **** 0.0
45135 H 69.1518 90.3912 46.8843 H 0.0 **** 0.0
45136 H 68.7426 92.048 48.6479 H 0.0 **** 0.0
45137 H 67.6349 90.8626 49.5072 H 0.0 **** 0.0
45138 H 67.1673 91.4823 47.8638 H 0.0 **** 0.0
45139 H 70.4813 88.7628 48.3029 H 0.0 **** 0.0
45140 H 69.4426 89.1574 49.7753 H 0.0 **** 0.0
45141 H 70.4035 90.4619 49.0758 H 0.0 **** 0.0
45142 H 63.8814 98.1902 49.0298 H 0.0 **** 0.0
45143 H 54.0309 107.201 44.5137 H 0.0 **** 0.0
45144 H 53.4796 108.808 42.2457 H 0.0 **** 0.0
45145 H 53.818 111.315 42.0759 H 0.0 **** 0.0
45146 H 54.5217 114.032 43.4211 H 0.0 **** 0.0
45147 H 51.9941 113.607 45.1585 H 0.0 **** 0.0
45148 H 55.2199 115.23 48.2025 H 0.0 **** 0.0
45149 H 52.7647 115.675 47.2154 H 0.0 **** 0.0
45150 H 58.1293 109.588 49.6401 H 0.0 **** 0.0
45151 H 57.3508 110.852 51.85 H 0.0 **** 0.0
45152 H 58.0574 112.371 51.2406 H 0.0 **** 0.0
45153 H 57.2614 112.484 53.6204 H 0.0 **** 0.0
45154 H 55.5721 112.074 53.0852 H 0.0 **** 0.0
45155 H 57.1338 114.62 52.3803 H 0.0 **** 0.0
45156 H 55.7499 114.547 53.3949 H 0.0 **** 0.0
45157 C 25.2416 61.2737 85.1323 C 0.0 **** 0.0
45158 C 26.276 60.7204 86.1397 C 0.0 **** 0.0
45159 C 27.2109 61.8911 86.5778 C 0.0 **** 0.0
45160 C 27.4952 62.8967 85.4461 C 0.0 **** 0.0
45161 C 26.1431 63.3807 84.8171 C 0.0 **** 0.0
45162 O 24.9974 62.6574 85.2411 O 0.0 **** 0.0
45163 C 28.487 62.2665 84.3727 C 0.0 **** 0.0
45164 C 29.633 61.3711 84.9389 C 0.0 **** 0.0
45165 C 29.7741 61.6062 86.4067 C 0.0 **** 0.0
45166 C 28.5139 61.3249 87.2039 C 0.0 **** 0.0
45167 O 30.8871 61.5079 84.3279 O 0.0 **** 0.0
45168 C 30.7783 61.5264 82.9081 C 0.0 **** 0.0
45169 C 30.1978 62.8994 82.5192 C 0.0 **** 0.0
45170 C 29.0881 63.4513 83.5236 C 0.0 **** 0.0
45171 C 29.7585 62.9138 81.058 C 0.0 **** 0.0
45172 C 29.276 61.713 80.385 C 0.0 **** 0.0
45173 C 29.9593 60.3969 80.7243 C 0.0 **** 0.0
45174 C 30.0303 60.2885 82.2586 C 0.0 **** 0.0
45175 C 29.0682 59.2468 80.2042 C 0.0 **** 0.0
45176 C 28.8982 59.2788 78.6811 C 0.0 **** 0.0
45177 C 28.5157 60.6499 78.1683 C 0.0 **** 0.0
45178 C 29.1653 61.8637 78.8511 C 0.0 **** 0.0
45179 C 28.1923 63.0382 78.6424 C 0.0 **** 0.0
45180 C 28.8804 64.2911 79.0819 C 0.0 **** 0.0
45181 C 29.4747 64.1485 80.4661 C 0.0 **** 0.0
45182 O 28.6902 60.6686 76.7691 O 0.0 **** 0.0
45183 C 27.7247 59.7805 76.2051 C 0.0 **** 0.0
45184 C 27.7866 58.3027 76.6899 C 0.0 **** 0.0
45185 C 27.8599 58.2719 78.2179 C 0.0 **** 0.0
45186 C 30.6908 58.9271 82.5336 C 0.0 **** 0.0
45187 C 29.8031 57.767 82.1003 C 0.0 **** 0.0
45188 C 29.6077 57.835 80.6007 C 0.0 **** 0.0
45189 C 30.4148 56.4286 82.4729 C 0.0 **** 0.0
45190 C 31.7021 56.2405 82.1679 C 0.0 **** 0.0
45191 C 32.6445 57.4355 81.9347 C 0.0 **** 0.0
45192 C 32.0189 58.7536 82.2742 C 0.0 **** 0.0
45193 C 32.2719 54.8292 82.1365 C 0.0 **** 0.0
45194 C 31.2479 53.6708 82.231 C 0.0 **** 0.0
45195 C 29.9464 54.0282 82.9823 C 0.0 **** 0.0
45196 C 29.5754 55.3506 83.0779 C 0.0 **** 0.0
45197 C 28.341 55.757 83.8257 C 0.0 **** 0.0
45198 C 27.9369 54.65 84.8246 C 0.0 **** 0.0
45199 C 27.8362 53.2641 84.1696 C 0.0 **** 0.0
45200 C 29.2128 52.8715 83.6464 C 0.0 **** 0.0
45201 C 28.2811 56.8769 78.6493 C 0.0 **** 0.0
45202 C 28.5584 56.8538 80.1336 C 0.0 **** 0.0
45203 C 26.6511 57.4563 76.1743 C 0.0 **** 0.0
45204 C 26.902 55.9375 76.51 C 0.0 **** 0.0
45205 S 26.8638 55.7034 78.3308 S 0.0 **** 0.0
45206 C 25.9404 54.9999 75.7806 C 0.0 **** 0.0
45207 C 25.4482 55.586 74.4263 C 0.0 **** 0.0
45208 C 26.4437 56.5301 73.7192 C 0.0 **** 0.0
45209 C 26.4409 57.7744 74.6561 C 0.0 **** 0.0
45210 C 26.1223 56.8451 72.2074 C 0.0 **** 0.0
45211 C 25.3171 55.7179 71.5194 C 0.0 **** 0.0
45212 C 24.138 55.2554 72.3928 C 0.0 **** 0.0
45213 C 24.7453 54.5534 73.5644 C 0.0 **** 0.0
45214 C 23.1996 54.3622 71.634 C 0.0 **** 0.0
45215 C 22.9966 54.5287 70.0933 C 0.0 **** 0.0
45216 C 24.318 54.8452 69.3885 C 0.0 **** 0.0
45217 C 24.9928 56.0578 70.0546 C 0.0 **** 0.0
45218 C 26.3769 59.247 74.1739 C 0.0 **** 0.0
45219 C 27.7282 59.7497 74.7099 C 0.0 **** 0.0
45220 C 25.4167 58.2372 72.0557 C 0.0 **** 0.0
45221 C 26.3625 59.3505 72.629 C 0.0 **** 0.0
45222 C 24.2574 57.3793 69.8379 C 0.0 **** 0.0
45223 C 25.0923 58.5074 70.5431 C 0.0 **** 0.0
45224 C 24.1164 55.1836 67.8514 C 0.0 **** 0.0
45225 C 23.4784 56.5754 67.6214 C 0.0 **** 0.0
45226 C 24.2596 57.6594 68.3412 C 0.0 **** 0.0
45227 O 22.5605 53.2748 69.6441 O 0.0 **** 0.0
45228 C 21.2464 52.8966 70.0231 C 0.0 **** 0.0
45229 C 20.8171 53.4517 71.3779 C 0.0 **** 0.0
45230 C 21.9258 53.8479 72.3891 C 0.0 **** 0.0
45231 C 19.8204 52.501 72.1195 C 0.0 **** 0.0
45232 C 18.8785 51.7934 71.1834 C 0.0 **** 0.0
45233 C 19.6984 50.8392 70.2531 C 0.0 **** 0.0
45234 C 21.1599 51.3722 69.929 C 0.0 **** 0.0
45235 C 21.5904 50.9241 68.554 C 0.0 **** 0.0
45236 C 21.1779 49.484 68.3236 C 0.0 **** 0.0
45237 C 19.6643 49.2968 68.4502 C 0.0 **** 0.0
45238 N 18.9322 50.4238 69.0924 N 0.0 **** 0.0
45239 C 25.7793 60.7255 72.3715 C 0.0 **** 0.0
45240 C 25.3164 60.9257 70.9233 C 0.0 **** 0.0
45241 C 24.3952 59.8377 70.3391 C 0.0 **** 0.0
45242 O 24.7482 62.1888 70.7099 O 0.0 **** 0.0
45243 C 25.8308 63.116 70.8381 C 0.0 **** 0.0
45244 C 26.4827 62.9988 72.2696 C 0.0 **** 0.0
45245 O 26.8198 61.677 72.6342 O 0.0 **** 0.0
45246 C 25.6827 63.7893 73.3856 C 0.0 **** 0.0
45247 C 24.2659 64.2016 72.9158 C 0.0 **** 0.0
45248 C 24.3867 65.0828 71.7269 C 0.0 **** 0.0
45249 C 25.3356 64.544 70.594 C 0.0 **** 0.0
45250 C 23.6754 59.0733 68.0187 C 0.0 **** 0.0
45251 C 24.2731 60.1652 68.8409 C 0.0 **** 0.0
45252 C 23.5492 56.8733 66.1433 C 0.0 **** 0.0
45253 C 23.158 58.3107 65.7834 C 0.0 **** 0.0
45254 C 24.0082 59.3083 66.5619 C 0.0 **** 0.0
45255 C 22.6898 55.8946 65.3519 C 0.0 **** 0.0
45256 C 23.3559 54.5367 65.4869 C 0.0 **** 0.0
45257 C 23.5811 54.0872 66.939 C 0.0 **** 0.0
45258 O 23.3546 58.5614 64.4399 O 0.0 **** 0.0
45259 C 22.4445 57.784 63.707 C 0.0 **** 0.0
45260 C 22.835 56.3295 63.8629 C 0.0 **** 0.0
45261 C 22.7232 53.4687 64.5452 C 0.0 **** 0.0
45262 C 22.523 53.9974 63.0811 C 0.0 **** 0.0
45263 C 21.9954 55.4072 62.976 C 0.0 **** 0.0
45264 C 21.59 53.1196 62.24 C 0.0 **** 0.0
45265 C 21.7973 51.6222 62.7112 C 0.0 **** 0.0
45266 C 21.2627 51.5069 64.1884 C 0.0 **** 0.0
45267 C 21.4213 52.7983 65.0363 C 0.0 **** 0.0
45268 C 22.1022 55.8908 61.5109 C 0.0 **** 0.0
45269 C 21.5256 57.3073 61.4171 C 0.0 **** 0.0
45270 C 22.3862 58.2524 62.2826 C 0.0 **** 0.0
45271 C 21.8183 53.5116 60.7454 C 0.0 **** 0.0
45272 C 21.2202 54.9231 60.6259 C 0.0 **** 0.0
45273 C 26.6504 55.092 85.6719 C 0.0 **** 0.0
45274 C 25.3646 54.844 84.8371 C 0.0 **** 0.0
45275 C 26.5068 54.2703 87.0034 C 0.0 **** 0.0
45276 O 21.4666 54.8355 73.2823 O 0.0 **** 0.0
45277 C 21.79 59.6413 62.2036 C 0.0 **** 0.0
45278 C 21.7245 60.1441 60.7354 C 0.0 **** 0.0
45279 C 20.8628 59.2168 59.9607 C 0.0 **** 0.0
45280 C 21.5145 57.8274 59.9722 C 0.0 **** 0.0
45281 C 20.7358 56.843 59.1086 C 0.0 **** 0.0
45282 C 20.6785 57.412 57.6927 C 0.0 **** 0.0
45283 C 20.0288 58.7768 57.6326 C 0.0 **** 0.0
45284 C 20.7239 59.755 58.5619 C 0.0 **** 0.0
45285 C 20.1076 59.3917 56.2531 C 0.0 **** 0.0
45286 C 19.3843 58.434 55.2773 C 0.0 **** 0.0
45287 C 19.9264 56.9686 55.3556 C 0.0 **** 0.0
45288 C 19.8757 56.4711 56.8137 C 0.0 **** 0.0
45289 C 20.3313 55.0051 56.8598 C 0.0 **** 0.0
45290 C 20.3618 54.5179 58.3092 C 0.0 **** 0.0
45291 C 21.2538 55.4126 59.1604 C 0.0 **** 0.0
45292 C 19.2767 54.1922 56.1229 C 0.0 **** 0.0
45293 C 19.3679 54.6568 54.6659 C 0.0 **** 0.0
45294 C 18.9845 56.1342 54.5269 C 0.0 **** 0.0
45295 C 21.0536 52.5486 59.815 C 0.0 **** 0.0
45296 C 20.9044 53.0595 58.3447 C 0.0 **** 0.0
45297 C 19.4859 52.6474 56.2061 C 0.0 **** 0.0
45298 C 19.8579 52.1949 57.6086 C 0.0 **** 0.0
45299 C 20.1065 50.6768 57.6719 C 0.0 **** 0.0
45300 C 19.3277 49.9047 56.6087 C 0.0 **** 0.0
45301 C 17.9901 50.508 56.1636 C 0.0 **** 0.0
45302 C 18.1507 52.0028 55.918 C 0.0 **** 0.0
45303 O 17.2048 52.6485 55.5244 O 0.0 **** 0.0
45304 H 24.2598 60.7696 85.2966 H 0.0 **** 0.0
45305 H 25.5415 61.0473 84.0778 H 0.0 **** 0.0
45306 H 25.7846 60.3478 87.0686 H 0.0 **** 0.0
45307 H 26.8968 59.8973 85.7007 H 0.0 **** 0.0
45308 H 26.6559 62.4259 87.366 H 0.0 **** 0.0
45309 H 27.9822 63.7314 85.9776 H 0.0 **** 0.0
45310 H 26.1791 63.4059 83.6859 H 0.0 **** 0.0
45311 H 25.9828 64.4408 85.1245 H 0.0 **** 0.0
45312 H 27.8672 61.6854 83.6892 H 0.0 **** 0.0
45313 H 29.2949 60.3275 84.8263 H 0.0 **** 0.0
45314 H 30.0152 62.6877 86.5481 H 0.0 **** 0.0
45315 H 30.6468 61.0213 86.7689 H 0.0 **** 0.0
45316 H 28.6249 61.7998 88.1906 H 0.0 **** 0.0
45317 H 28.4577 60.2333 87.4393 H 0.0 **** 0.0
45318 H 31.8254 61.514 82.5474 H 0.0 **** 0.0
45319 H 31.034 63.5978 82.6345 H 0.0 **** 0.0
45320 H 28.2957 63.9434 82.9125 H 0.0 **** 0.0
45321 H 29.5863 64.1756 84.1756 H 0.0 **** 0.0
45322 H 28.9839 60.2348 82.641 H 0.0 **** 0.0
45323 H 28.0042 63.0641 77.5281 H 0.0 **** 0.0
45324 H 27.2134 62.8464 79.1761 H 0.0 **** 0.0
45325 H 28.175 65.0878 79.1017 H 0.0 **** 0.0
45326 H 29.7277 64.5159 78.3669 H 0.0 **** 0.0
45327 H 29.7952 65.0428 80.9427 H 0.0 **** 0.0
45328 H 28.7958 57.917 82.5197 H 0.0 **** 0.0
45329 H 33.034 57.4549 80.9081 H 0.0 **** 0.0
45330 H 33.5587 57.3338 82.5151 H 0.0 **** 0.0
45331 H 32.6773 59.6081 82.1078 H 0.0 **** 0.0
45332 H 32.8315 54.6571 81.1858 H 0.0 **** 0.0
45333 H 33.0375 54.8084 82.9071 H 0.0 **** 0.0
45334 H 31.7004 52.7808 82.7161 H 0.0 **** 0.0
45335 H 30.9881 53.2682 81.2071 H 0.0 **** 0.0
45336 H 28.4763 56.6791 84.387 H 0.0 **** 0.0
45337 H 27.5002 55.992 83.1462 H 0.0 **** 0.0
45338 H 28.7266 54.6182 85.6198 H 0.0 **** 0.0
45339 H 27.1508 53.3501 83.3102 H 0.0 **** 0.0
45340 H 27.4814 52.5189 84.9072 H 0.0 **** 0.0
45341 H 29.0661 52.0144 82.9678 H 0.0 **** 0.0
45342 H 29.825 52.4902 84.4705 H 0.0 **** 0.0
45343 H 28.8686 55.8311 80.357 H 0.0 **** 0.0
45344 H 25.027 54.8839 76.4153 H 0.0 **** 0.0
45345 H 23.981 54.0767 74.1695 H 0.0 **** 0.0
45346 H 28.6409 59.1857 74.2768 H 0.0 **** 0.0
45347 H 20.6084 53.2858 69.2403 H 0.0 **** 0.0
45348 H 20.2519 54.4154 71.1454 H 0.0 **** 0.0
45349 H 22.2966 52.9818 72.9793 H 0.0 **** 0.0
45350 H 20.3996 51.7128 72.6668 H 0.0 **** 0.0
45351 H 19.2877 53.136 72.8418 H 0.0 **** 0.0
45352 H 18.3769 52.6447 70.6167 H 0.0 **** 0.0
45353 H 18.0826 51.2511 71.7652 H 0.0 **** 0.0
45354 H 19.8826 49.9559 70.8823 H 0.0 **** 0.0
45355 H 21.9095 51.0086 70.6589 H 0.0 **** 0.0
45356 H 21.0454 51.4889 67.7962 H 0.0 **** 0.0
45357 H 22.669 51.0639 68.4286 H 0.0 **** 0.0
45358 H 21.7811 48.9279 69.0593 H 0.0 **** 0.0
45359 H 21.5568 49.1943 67.3258 H 0.0 **** 0.0
45360 H 19.4382 48.3314 68.9983 H 0.0 **** 0.0
45361 H 19.3051 49.1076 67.4362 H 0.0 **** 0.0
45362 H 18.8848 51.2443 68.4527 H 0.0 **** 0.0
45363 H 26.6088 62.8916 70.0373 H 0.0 **** 0.0
45364 H 27.417 63.4985 72.2074 H 0.0 **** 0.0
45365 H 25.5765 63.1941 74.3037 H 0.0 **** 0.0
45366 H 26.1812 64.7425 73.6677 H 0.0 **** 0.0
45367 H 23.7202 64.7583 73.6959 H 0.0 **** 0.0
45368 H 23.6019 63.3313 72.6924 H 0.0 **** 0.0
45369 H 24.6992 66.1347 72.047 H 0.0 **** 0.0
45370 H 23.3795 65.2266 71.3134 H 0.0 **** 0.0
45371 H 26.2116 65.1851 70.6451 H 0.0 **** 0.0
45372 H 24.7914 64.6546 69.613 H 0.0 **** 0.0
45373 H 23.6459 61.0807 68.7366 H 0.0 **** 0.0
45374 H 23.71 60.3431 66.2437 H 0.0 **** 0.0
45375 H 24.1402 53.1478 67.0233 H 0.0 **** 0.0
45376 H 23.5307 52.6915 64.4889 H 0.0 **** 0.0
45377 H 23.5571 53.9786 62.6321 H 0.0 **** 0.0
45378 H 20.5868 53.3728 62.5412 H 0.0 **** 0.0
45379 H 22.8589 51.2732 62.6583 H 0.0 **** 0.0
45380 H 21.2526 50.9428 62.076 H 0.0 **** 0.0
45381 H 21.8405 50.7196 64.6933 H 0.0 **** 0.0
45382 H 20.1964 51.2525 64.1965 H 0.0 **** 0.0
45383 H 21.5131 52.5067 66.0707 H 0.0 **** 0.0
45384 H 20.5824 53.4544 64.8234 H 0.0 **** 0.0
45385 H 26.7507 56.1946 85.9266 H 0.0 **** 0.0
45386 H 24.5039 55.2964 85.3658 H 0.0 **** 0.0
45387 H 25.1104 53.7598 84.6817 H 0.0 **** 0.0
45388 H 25.4767 55.2626 83.8118 H 0.0 **** 0.0
45389 H 27.4759 54.1965 87.5206 H 0.0 **** 0.0
45390 H 26.1318 53.2131 86.8506 H 0.0 **** 0.0
45391 H 25.8251 54.7769 87.6836 H 0.0 **** 0.0
45392 H 21.5275 54.4326 74.2061 H 0.0 **** 0.0
45393 H 22.4345 60.3889 62.711 H 0.0 **** 0.0
45394 H 21.4225 61.1868 60.6721 H 0.0 **** 0.0
45395 H 20.1739 60.703 58.6208 H 0.0 **** 0.0
45396 H 19.7633 60.4613 56.2135 H 0.0 **** 0.0
45397 H 19.4132 58.8871 54.2015 H 0.0 **** 0.0
45398 H 18.7862 54.0296 53.9713 H 0.0 **** 0.0
45399 H 19.0394 56.4469 53.4331 H 0.0 **** 0.0
45400 H 20.0947 52.3038 60.3002 H 0.0 **** 0.0
45401 H 21.1953 50.3743 57.6492 H 0.0 **** 0.0
45402 H 19.7183 50.3283 58.6934 H 0.0 **** 0.0
45403 H 19.0946 48.8886 57.0354 H 0.0 **** 0.0
45404 H 20.019 49.6533 55.7236 H 0.0 **** 0.0
45405 H 17.2588 50.4335 56.9894 H 0.0 **** 0.0
45406 H 17.53 49.9593 55.2683 H 0.0 **** 0.0
45407 C 43.5991 26.8814 48.3941 C 0.0 **** 0.0
45408 C 44.0577 25.5543 47.6811 C 0.0 **** 0.0
45409 C 44.7215 24.568 48.6427 C 0.0 **** 0.0
45410 C 45.7683 25.2809 49.5187 C 0.0 **** 0.0
45411 C 45.289 26.694 49.9595 C 0.0 **** 0.0
45412 O 43.8939 26.8316 49.7615 O 0.0 **** 0.0
45413 C 47.2089 25.351 48.844 C 0.0 **** 0.0
45414 C 47.5025 24.2552 47.7815 C 0.0 **** 0.0
45415 C 46.6722 23.0362 48.0498 C 0.0 **** 0.0
45416 C 45.2006 23.2856 47.9483 C 0.0 **** 0.0
45417 O 48.8756 23.8332 47.7079 O 0.0 **** 0.0
45418 C 49.8032 24.8436 48.0384 C 0.0 **** 0.0
45419 C 49.6941 25.3269 49.5007 C 0.0 **** 0.0
45420 C 48.237 25.2781 50.0001 C 0.0 **** 0.0
45421 C 50.2965 26.7034 49.7705 C 0.0 **** 0.0
45422 C 50.2573 27.731 48.7738 C 0.0 **** 0.0
45423 C 50.6483 27.1882 47.3925 C 0.0 **** 0.0
45424 C 49.7639 26.0173 46.9753 C 0.0 **** 0.0
45425 C 50.4888 28.2865 46.3401 C 0.0 **** 0.0
45426 C 51.2583 29.5606 46.6246 C 0.0 **** 0.0
45427 C 51.2396 30.0614 48.1078 C 0.0 **** 0.0
45428 C 51.1981 28.9252 49.1168 C 0.0 **** 0.0
45429 C 50.8973 29.451 50.4954 C 0.0 **** 0.0
45430 C 51.2198 28.3503 51.4983 C 0.0 **** 0.0
45431 C 50.6823 26.9966 51.0971 C 0.0 **** 0.0
45432 O 52.407 30.8478 48.4323 O 0.0 **** 0.0
45433 C 52.6714 31.7528 47.4005 C 0.0 **** 0.0
45434 C 53.2316 30.9857 46.1734 C 0.0 **** 0.0
45435 C 52.6586 29.5701 46.0362 C 0.0 **** 0.0
45436 C 50.0437 25.576 45.5607 C 0.0 **** 0.0
45437 C 49.7595 26.6183 44.5126 C 0.0 **** 0.0
45438 C 50.621 27.8489 44.8556 C 0.0 **** 0.0
45439 C 50.0074 26.2226 43.0479 C 0.0 **** 0.0
45440 C 50.5159 24.9726 42.7246 C 0.0 **** 0.0
45441 C 50.8777 24.0053 43.8091 C 0.0 **** 0.0
45442 C 50.6212 24.4066 45.2231 C 0.0 **** 0.0
45443 C 50.9268 24.6164 41.3025 C 0.0 **** 0.0
45444 C 51.3884 25.8973 40.594 C 0.0 **** 0.0
45445 C 50.5165 27.108 40.8034 C 0.0 **** 0.0
45446 C 49.8219 27.2354 41.9521 C 0.0 **** 0.0
45447 C 48.9269 28.4619 42.2179 C 0.0 **** 0.0
45448 C 48.5105 29.1603 40.9312 C 0.0 **** 0.0
45449 C 49.6907 29.414 40.0129 C 0.0 **** 0.0
45450 C 50.4608 28.1174 39.6559 C 0.0 **** 0.0
45451 C 52.8586 28.9915 44.6548 C 0.0 **** 0.0
45452 C 52.1039 27.7171 44.4241 C 0.0 **** 0.0
45453 C 54.753 31.0297 46.0201 C 0.0 **** 0.0
45454 C 55.0937 30.5212 44.5956 C 0.0 **** 0.0
45455 S 54.6593 28.7303 44.4789 S 0.0 **** 0.0
45456 C 56.5655 30.6792 44.143 C 0.0 **** 0.0
45457 C 56.9727 32.1257 44.3827 C 0.0 **** 0.0
45458 C 56.8044 32.4752 45.8521 C 0.0 **** 0.0
45459 C 55.2928 32.4474 46.199 C 0.0 **** 0.0
45460 C 57.4837 33.7917 46.192 C 0.0 **** 0.0
45461 C 58.9875 33.7362 45.8659 C 0.0 **** 0.0
45462 C 59.1732 33.5885 44.3751 C 0.0 **** 0.0
45463 C 58.4718 32.286 43.9106 C 0.0 **** 0.0
45464 C 60.6529 33.4638 44.0243 C 0.0 **** 0.0
45465 C 61.6031 34.4948 44.6419 C 0.0 **** 0.0
45466 C 61.3124 34.7143 46.1441 C 0.0 **** 0.0
45467 C 59.7864 34.9244 46.3839 C 0.0 **** 0.0
45468 C 55.0058 32.8848 47.6207 C 0.0 **** 0.0
45469 C 53.456 32.9655 47.875 C 0.0 **** 0.0
45470 C 57.1903 34.0813 47.7012 C 0.0 **** 0.0
45471 C 55.6448 34.2603 47.8494 C 0.0 **** 0.0
45472 C 59.4825 35.14 47.8881 C 0.0 **** 0.0
45473 C 57.9571 35.3597 48.0402 C 0.0 **** 0.0
45474 C 62.089 35.9288 46.7523 C 0.0 **** 0.0
45475 C 61.7538 36.0532 48.2592 C 0.0 **** 0.0
45476 C 60.2545 36.3255 48.4096 C 0.0 **** 0.0
45477 O 62.9142 34.0919 44.4251 O 0.0 **** 0.0
45478 C 63.2317 34.2259 43.0604 C 0.0 **** 0.0
45479 C 62.3344 33.2669 42.2488 C 0.0 **** 0.0
45480 C 60.8894 33.5178 42.5003 C 0.0 **** 0.0
45481 C 62.7141 31.789 42.492 C 0.0 **** 0.0
45482 C 64.1508 31.4766 42.8965 C 0.0 **** 0.0
45483 C 65.1714 32.5367 42.4377 C 0.0 **** 0.0
45484 C 64.7535 34.0167 42.8187 C 0.0 **** 0.0
45485 C 65.2639 35.0239 41.7357 C 0.0 **** 0.0
45486 C 66.6081 34.6407 41.2019 C 0.0 **** 0.0
45487 C 66.4916 33.272 40.4938 C 0.0 **** 0.0
45488 N 65.3976 32.41 40.9838 N 0.0 **** 0.0
45489 C 55.355 34.8163 49.2555 C 0.0 **** 0.0
45490 C 56.136 36.1109 49.5426 C 0.0 **** 0.0
45491 C 57.5943 35.7944 49.4545 C 0.0 **** 0.0
45492 O 55.6928 36.8584 50.6733 O 0.0 **** 0.0
45493 C 54.8729 36.1209 51.5605 C 0.0 **** 0.0
45494 C 53.803 35.2479 50.8032 C 0.0 **** 0.0
45495 O 54.0028 35.1042 49.413 O 0.0 **** 0.0
45496 C 52.3372 35.7422 51.0711 C 0.0 **** 0.0
45497 C 52.2414 37.2707 50.9603 C 0.0 **** 0.0
45498 C 53.2805 38.0357 51.7903 C 0.0 **** 0.0
45499 C 54.2471 37.1222 52.5804 C 0.0 **** 0.0
45500 C 59.8481 36.697 49.8499 C 0.0 **** 0.0
45501 C 58.4005 36.968 49.9969 C 0.0 **** 0.0
45502 C 62.6416 36.9869 49.1251 C 0.0 **** 0.0
45503 C 61.895 38.2052 49.663 C 0.0 **** 0.0
45504 C 60.6262 37.918 50.4221 C 0.0 **** 0.0
45505 C 63.7769 37.5699 48.2748 C 0.0 **** 0.0
45506 C 64.4999 36.4869 47.4827 C 0.0 **** 0.0
45507 C 63.5696 35.6526 46.5667 C 0.0 **** 0.0
45508 O 62.7444 38.9833 50.4614 O 0.0 **** 0.0
45509 C 63.7468 39.5703 49.6234 C 0.0 **** 0.0
45510 C 64.6605 38.5089 49.0681 C 0.0 **** 0.0
45511 C 65.798 36.9718 46.7776 C 0.0 **** 0.0
45512 C 66.6159 38.1033 47.5627 C 0.0 **** 0.0
45513 C 65.7461 39.1744 48.2455 C 0.0 **** 0.0
45514 C 67.6011 38.8318 46.6108 C 0.0 **** 0.0
45515 C 68.1629 37.8158 45.6065 C 0.0 **** 0.0
45516 C 67.0445 37.4319 44.6299 C 0.0 **** 0.0
45517 C 65.6658 37.3543 45.3053 C 0.0 **** 0.0
45518 C 66.6072 40.1782 49.0647 C 0.0 **** 0.0
45519 C 65.7452 41.3239 49.5811 C 0.0 **** 0.0
45520 C 64.5071 40.7344 50.3257 C 0.0 **** 0.0
45521 C 68.5545 39.6996 47.4818 C 0.0 **** 0.0
45522 C 67.7453 40.8061 48.223 C 0.0 **** 0.0
45523 C 47.6562 30.4598 41.2202 C 0.0 **** 0.0
45524 C 48.5304 31.6899 41.3173 C 0.0 **** 0.0
45525 C 46.6241 30.6457 40.1036 C 0.0 **** 0.0
45526 O 60.4755 34.7597 41.9318 O 0.0 **** 0.0
45527 C 64.6812 40.5945 51.8462 C 0.0 **** 0.0
45528 C 65.1254 41.8963 52.4273 C 0.0 **** 0.0
45529 C 66.5521 42.2275 51.9515 C 0.0 **** 0.0
45530 C 66.5642 42.3245 50.4502 C 0.0 **** 0.0
45531 C 67.9393 42.7206 49.8676 C 0.0 **** 0.0
45532 C 68.8803 43.2985 50.8527 C 0.0 **** 0.0
45533 C 68.1892 44.2445 51.8119 C 0.0 **** 0.0
45534 C 66.968 43.6065 52.4985 C 0.0 **** 0.0
45535 C 69.1842 44.8796 52.7859 C 0.0 **** 0.0
45536 C 70.2969 45.5961 52.0064 C 0.0 **** 0.0
45537 C 71.0756 44.5941 51.1502 C 0.0 **** 0.0
45538 C 70.0746 43.9877 50.1691 C 0.0 **** 0.0
45539 C 70.8615 42.9429 49.2975 C 0.0 **** 0.0
45540 C 69.9161 42.1924 48.3456 C 0.0 **** 0.0
45541 C 68.6791 41.615 49.1062 C 0.0 **** 0.0
45542 C 72.0174 43.5579 48.502 C 0.0 **** 0.0
45543 C 72.9487 44.2354 49.4963 C 0.0 **** 0.0
45544 C 72.275 45.2093 50.4437 C 0.0 **** 0.0
45545 C 69.6342 40.3611 46.6754 C 0.0 **** 0.0
45546 C 70.6235 41.0499 47.6055 C 0.0 **** 0.0
45547 C 72.7657 42.4443 47.7134 C 0.0 **** 0.0
45548 C 71.8376 41.5755 46.8575 C 0.0 **** 0.0
45549 C 72.6235 40.3762 46.2234 C 0.0 **** 0.0
45550 C 74.1157 40.6092 46.0293 C 0.0 **** 0.0
45551 C 74.3674 42.0147 45.6239 C 0.0 **** 0.0
45552 C 73.8939 42.9119 46.7493 C 0.0 **** 0.0
45553 O 74.388 44.0448 46.7841 O 0.0 **** 0.0
45554 H 42.4624 27.0456 48.178 H 0.0 **** 0.0
45555 H 44.1897 27.7161 47.9351 H 0.0 **** 0.0
45556 H 43.2189 25.0274 47.152 H 0.0 **** 0.0
45557 H 44.7581 25.7989 46.8503 H 0.0 **** 0.0
45558 H 43.9497 24.2162 49.3429 H 0.0 **** 0.0
45559 H 45.8109 24.6126 50.44 H 0.0 **** 0.0
45560 H 45.8639 27.4497 49.3975 H 0.0 **** 0.0
45561 H 45.4962 26.7858 51.0609 H 0.0 **** 0.0
45562 H 47.2775 26.3481 48.3881 H 0.0 **** 0.0
45563 H 47.2139 24.6616 46.7549 H 0.0 **** 0.0
45564 H 46.8906 22.6812 49.0787 H 0.0 **** 0.0
45565 H 47.0339 22.2087 47.337 H 0.0 **** 0.0
45566 H 44.6258 22.4435 48.3037 H 0.0 **** 0.0
45567 H 44.9248 23.3604 46.8664 H 0.0 **** 0.0
45568 H 50.7673 24.3834 47.9499 H 0.0 **** 0.0
45569 H 50.3108 24.5953 50.1186 H 0.0 **** 0.0
45570 H 47.9609 26.0541 50.7233 H 0.0 **** 0.0
45571 H 48.1417 24.3463 50.6106 H 0.0 **** 0.0
45572 H 48.7689 26.3786 46.9395 H 0.0 **** 0.0
45573 H 51.4524 30.3586 50.6868 H 0.0 **** 0.0
45574 H 49.7999 29.7076 50.6507 H 0.0 **** 0.0
45575 H 50.8746 28.6618 52.507 H 0.0 **** 0.0
45576 H 52.3171 28.2484 51.5321 H 0.0 **** 0.0
45577 H 50.6325 26.2038 51.8828 H 0.0 **** 0.0
45578 H 48.7223 26.8966 44.6056 H 0.0 **** 0.0
45579 H 51.9512 23.8144 43.7387 H 0.0 **** 0.0
45580 H 50.2727 23.0873 43.5813 H 0.0 **** 0.0
45581 H 50.8805 23.6667 45.9778 H 0.0 **** 0.0
45582 H 51.8017 23.9109 41.3152 H 0.0 **** 0.0
45583 H 50.0169 24.1813 40.8242 H 0.0 **** 0.0
45584 H 51.4185 25.6168 39.5198 H 0.0 **** 0.0
45585 H 52.4381 26.1536 40.8615 H 0.0 **** 0.0
45586 H 47.9984 28.1382 42.6938 H 0.0 **** 0.0
45587 H 49.4894 29.181 42.7866 H 0.0 **** 0.0
45588 H 47.8166 28.4687 40.4491 H 0.0 **** 0.0
45589 H 50.4153 30.1059 40.4945 H 0.0 **** 0.0
45590 H 49.3701 29.9616 39.1043 H 0.0 **** 0.0
45591 H 51.4776 28.3902 39.3732 H 0.0 **** 0.0
45592 H 50.0284 27.6708 38.7544 H 0.0 **** 0.0
45593 H 52.1952 27.5551 43.3703 H 0.0 **** 0.0
45594 H 56.7239 30.3983 43.0595 H 0.0 **** 0.0
45595 H 58.4404 32.0898 42.811 H 0.0 **** 0.0
45596 H 53.2509 32.9462 48.9671 H 0.0 **** 0.0
45597 H 62.8658 35.2475 42.7474 H 0.0 **** 0.0
45598 H 62.4265 33.5253 41.186 H 0.0 **** 0.0
45599 H 60.3588 32.6909 41.9734 H 0.0 **** 0.0
45600 H 62.0043 31.3678 43.274 H 0.0 **** 0.0
45601 H 62.5681 31.1983 41.5363 H 0.0 **** 0.0
45602 H 64.3617 30.4746 42.4525 H 0.0 **** 0.0
45603 H 64.2354 31.4213 44.0223 H 0.0 **** 0.0
45604 H 66.1317 32.2504 42.9472 H 0.0 **** 0.0
45605 H 65.2586 34.3231 43.7455 H 0.0 **** 0.0
45606 H 64.5148 35.0656 40.8936 H 0.0 **** 0.0
45607 H 65.3167 36.0708 42.1906 H 0.0 **** 0.0
45608 H 67.337 34.5911 41.9949 H 0.0 **** 0.0
45609 H 66.8751 35.4173 40.4389 H 0.0 **** 0.0
45610 H 67.4835 32.7845 40.5688 H 0.0 **** 0.0
45611 H 66.2862 33.4584 39.443 H 0.0 **** 0.0
45612 H 64.4752 32.5895 40.4971 H 0.0 **** 0.0
45613 H 55.4894 35.4345 52.1346 H 0.0 **** 0.0
45614 H 53.7654 34.167 51.2057 H 0.0 **** 0.0
45615 H 51.7059 35.257 50.3387 H 0.0 **** 0.0
45616 H 51.9657 35.4272 52.0093 H 0.0 **** 0.0
45617 H 51.1778 37.5907 51.2119 H 0.0 **** 0.0
45618 H 52.4357 37.5736 49.8905 H 0.0 **** 0.0
45619 H 52.7426 38.5979 52.5558 H 0.0 **** 0.0
45620 H 53.8509 38.7493 51.1445 H 0.0 **** 0.0
45621 H 53.6839 36.4975 53.3435 H 0.0 **** 0.0
45622 H 55.0164 37.7838 53.0068 H 0.0 **** 0.0
45623 H 58.1986 37.0197 51.1077 H 0.0 **** 0.0
45624 H 60.0249 38.8287 50.5626 H 0.0 **** 0.0
45625 H 63.7909 34.5608 46.7111 H 0.0 **** 0.0
45626 H 66.4128 36.0913 46.7725 H 0.0 **** 0.0
45627 H 67.1728 37.6415 48.4207 H 0.0 **** 0.0
45628 H 66.9755 39.6024 46.0077 H 0.0 **** 0.0
45629 H 68.5947 36.9791 46.1876 H 0.0 **** 0.0
45630 H 69.0006 38.2692 45.0192 H 0.0 **** 0.0
45631 H 67.308 36.4178 44.2358 H 0.0 **** 0.0
45632 H 66.9861 38.172 43.8164 H 0.0 **** 0.0
45633 H 65.0268 36.7595 44.6632 H 0.0 **** 0.0
45634 H 65.1974 38.3692 45.22 H 0.0 **** 0.0
45635 H 47.1911 30.3573 42.1938 H 0.0 **** 0.0
45636 H 47.9539 32.5741 41.6609 H 0.0 **** 0.0
45637 H 48.8988 32.0097 40.3291 H 0.0 **** 0.0
45638 H 49.3646 31.5623 42.0405 H 0.0 **** 0.0
45639 H 45.8147 29.8924 40.2542 H 0.0 **** 0.0
45640 H 47.0584 30.5137 39.0969 H 0.0 **** 0.0
45641 H 46.1233 31.6318 40.2042 H 0.0 **** 0.0
45642 H 59.4963 34.7589 41.8273 H 0.0 **** 0.0
45643 H 63.664 40.33 52.3005 H 0.0 **** 0.0
45644 H 65.0882 41.8351 53.5197 H 0.0 **** 0.0
45645 H 67.0884 43.5438 53.5967 H 0.0 **** 0.0
45646 H 68.6203 45.6731 53.3398 H 0.0 **** 0.0
45647 H 71.0387 46.0619 52.7589 H 0.0 **** 0.0
45648 H 73.7283 44.8316 48.9981 H 0.0 **** 0.0
45649 H 73.0401 45.5035 51.2163 H 0.0 **** 0.0
45650 H 70.1568 39.6158 45.9879 H 0.0 **** 0.0
45651 H 72.5107 39.4636 46.8568 H 0.0 **** 0.0
45652 H 72.1855 40.2172 45.2439 H 0.0 **** 0.0
45653 H 74.5318 39.9538 45.2382 H 0.0 **** 0.0
45654 H 74.6544 40.4258 46.9664 H 0.0 **** 0.0
45655 H 73.6909 42.1529 44.7385 H 0.0 **** 0.0
45656 H 75.4062 42.1786 45.3087 H 0.0 **** 0.0
45657 C 83.3843 82.5756 89.1523 C 0.0 **** 0.0
45658 C 84.4088 83.5371 88.5321 C 0.0 **** 0.0
45659 C 85.7967 83.3119 89.1588 C 0.0 **** 0.0
45660 C 85.7444 83.4141 90.6979 C 0.0 **** 0.0
45661 C 84.3893 82.9133 91.1862 C 0.0 **** 0.0
45662 O 83.9041 81.9692 90.3095 O 0.0 **** 0.0
45663 C 86.1218 84.8537 91.2547 C 0.0 **** 0.0
45664 C 87.4882 85.4166 90.6996 C 0.0 **** 0.0
45665 C 87.9202 84.7278 89.3993 C 0.0 **** 0.0
45666 C 86.751 84.2992 88.5021 C 0.0 **** 0.0
45667 O 88.5403 85.2575 91.5993 O 0.0 **** 0.0
45668 C 88.3385 85.805 92.8649 C 0.0 **** 0.0
45669 C 87.2542 85.0646 93.6031 C 0.0 **** 0.0
45670 C 85.948 85.0438 92.8191 C 0.0 **** 0.0
45671 C 87.0455 85.6782 94.9597 C 0.0 **** 0.0
45672 C 87.0761 87.1072 95.1198 C 0.0 **** 0.0
45673 C 88.1364 87.8662 94.3294 C 0.0 **** 0.0
45674 C 88.0613 87.3767 92.8665 C 0.0 **** 0.0
45675 C 87.8384 89.4026 94.4126 C 0.0 **** 0.0
45676 C 87.8102 89.871 95.8617 C 0.0 **** 0.0
45677 C 86.6761 89.1672 96.5808 C 0.0 **** 0.0
45678 C 86.8882 87.6807 96.5719 C 0.0 **** 0.0
45679 C 85.6789 86.9822 97.1292 C 0.0 **** 0.0
45680 C 85.8516 85.4594 97.1668 C 0.0 **** 0.0
45681 C 86.399 84.8801 95.8976 C 0.0 **** 0.0
45682 O 86.4862 89.5659 97.9482 O 0.0 **** 0.0
45683 C 87.3562 90.5822 98.4154 C 0.0 **** 0.0
45684 C 87.5245 91.7579 97.4842 C 0.0 **** 0.0
45685 C 87.6352 91.3821 96.0089 C 0.0 **** 0.0
45686 C 88.9818 88.2408 92.0264 C 0.0 **** 0.0
45687 C 88.6511 89.711 92.0847 C 0.0 **** 0.0
45688 C 88.8464 90.2223 93.5615 C 0.0 **** 0.0
45689 C 89.3701 90.5645 91.0206 C 0.0 **** 0.0
45690 C 90.5019 90.0727 90.4678 C 0.0 **** 0.0
45691 C 91.107 88.7898 90.9949 C 0.0 **** 0.0
45692 C 90.0937 87.8151 91.3744 C 0.0 **** 0.0
45693 C 91.175 90.7638 89.3223 C 0.0 **** 0.0
45694 C 90.9096 92.2995 89.2224 C 0.0 **** 0.0
45695 C 89.5292 92.6974 89.7116 C 0.0 **** 0.0
45696 C 88.771 91.8521 90.4964 C 0.0 **** 0.0
45697 C 87.2699 92.1686 90.7422 C 0.0 **** 0.0
45698 C 86.8363 93.5894 90.325 C 0.0 **** 0.0
45699 C 88.0165 94.5843 90.3718 C 0.0 **** 0.0
45700 C 89.091 94.1061 89.4098 C 0.0 **** 0.0
45701 C 88.6859 92.1211 95.2552 C 0.0 **** 0.0
45702 C 88.636 91.768 93.7546 C 0.0 **** 0.0
45703 C 88.6149 92.7174 97.9735 C 0.0 **** 0.0
45704 C 88.5295 94.0791 97.2892 C 0.0 **** 0.0
45705 S 88.4302 93.9733 95.467 S 0.0 **** 0.0
45706 C 89.6994 95.0385 97.6803 C 0.0 **** 0.0
45707 C 90.2425 94.8397 99.085 C 0.0 **** 0.0
45708 C 89.1742 94.2255 100.016 C 0.0 **** 0.0
45709 C 88.7273 92.825 99.5529 C 0.0 **** 0.0
45710 C 89.6545 94.122 101.45 C 0.0 **** 0.0
45711 C 90.0876 95.4947 101.954 C 0.0 **** 0.0
45712 C 91.2868 95.9916 101.115 C 0.0 **** 0.0
45713 C 90.8538 96.1219 99.6628 C 0.0 **** 0.0
45714 C 92.1327 97.1357 101.704 C 0.0 **** 0.0
45715 C 91.9593 97.4507 103.194 C 0.0 **** 0.0
45716 C 90.9157 96.7639 104.007 C 0.0 **** 0.0
45717 C 90.5205 95.4057 103.416 C 0.0 **** 0.0
45718 C 87.4927 92.3514 100.325 C 0.0 **** 0.0
45719 C 86.8245 91.0613 99.7386 C 0.0 **** 0.0
45720 C 88.4599 93.5898 102.319 C 0.0 **** 0.0
45721 C 87.893 92.2541 101.796 C 0.0 **** 0.0
45722 C 89.4442 94.8026 104.325 C 0.0 **** 0.0
45723 C 88.8892 93.47 103.765 C 0.0 **** 0.0
45724 C 91.4433 96.6524 105.445 C 0.0 **** 0.0
45725 C 90.5858 95.744 106.305 C 0.0 **** 0.0
45726 C 90.0261 94.5031 105.683 C 0.0 **** 0.0
45727 O 92.088 98.8109 103.543 O 0.0 **** 0.0
45728 C 91.1018 99.6017 102.926 C 0.0 **** 0.0
45729 C 91.095 99.3914 101.383 C 0.0 **** 0.0
45730 C 92.3027 98.4852 100.973 C 0.0 **** 0.0
45731 C 91.0117 100.732 100.589 C 0.0 **** 0.0
45732 C 89.9969 101.689 101.27 C 0.0 **** 0.0
45733 C 90.6034 102.202 102.599 C 0.0 **** 0.0
45734 C 91.4225 101.068 103.337 C 0.0 **** 0.0
45735 C 91.285 101.131 104.901 C 0.0 **** 0.0
45736 C 91.2283 102.62 105.34 C 0.0 **** 0.0
45737 C 90.0716 103.376 104.69 C 0.0 **** 0.0
45738 N 89.5279 102.727 103.455 N 0.0 **** 0.0
45739 C 86.7131 91.8138 102.668 C 0.0 **** 0.0
45740 C 87.0443 91.8486 104.155 C 0.0 **** 0.0
45741 C 87.6258 93.1551 104.623 C 0.0 **** 0.0
45742 O 85.8954 91.547 104.921 O 0.0 **** 0.0
45743 C 85.4955 90.2505 104.563 C 0.0 **** 0.0
45744 C 85.2214 90.0958 103.065 C 0.0 **** 0.0
45745 O 86.3798 90.498 102.347 O 0.0 **** 0.0
45746 C 83.9523 90.8641 102.583 C 0.0 **** 0.0
45747 C 83.0619 91.3201 103.702 C 0.0 **** 0.0
45748 C 82.9604 90.2913 104.821 C 0.0 **** 0.0
45749 C 84.2474 89.77 105.328 C 0.0 **** 0.0
45750 C 88.9842 93.9825 106.655 C 0.0 **** 0.0
45751 C 88.0836 92.8943 106.064 C 0.0 **** 0.0
45752 C 91.4926 95.3148 107.479 C 0.0 **** 0.0
45753 C 90.9531 94.1615 108.401 C 0.0 **** 0.0
45754 C 89.6831 93.4907 107.919 C 0.0 **** 0.0
45755 C 91.8076 96.5186 108.357 C 0.0 **** 0.0
45756 C 92.3177 97.7418 107.592 C 0.0 **** 0.0
45757 C 91.6348 97.9864 106.196 C 0.0 **** 0.0
45758 O 90.9306 94.4811 109.768 O 0.0 **** 0.0
45759 C 92.2698 94.7772 110.046 C 0.0 **** 0.0
45760 C 92.6725 96.1394 109.512 C 0.0 **** 0.0
45761 C 92.4445 98.9551 108.556 C 0.0 **** 0.0
45762 C 93.0117 98.5991 109.973 C 0.0 **** 0.0
45763 C 92.5183 97.2428 110.562 C 0.0 **** 0.0
45764 C 92.713 99.653 111.087 C 0.0 **** 0.0
45765 C 92.6846 101.062 110.501 C 0.0 **** 0.0
45766 C 91.6155 101.24 109.386 C 0.0 **** 0.0
45767 C 91.2428 99.9184 108.646 C 0.0 **** 0.0
45768 C 93.3521 96.8861 111.783 C 0.0 **** 0.0
45769 C 92.9385 95.5832 112.466 C 0.0 **** 0.0
45770 C 92.6489 94.422 111.493 C 0.0 **** 0.0
45771 C 93.7682 99.4483 112.214 C 0.0 **** 0.0
45772 C 93.5708 98.0363 112.801 C 0.0 **** 0.0
45773 C 85.5641 94.0595 91.1418 C 0.0 **** 0.0
45774 C 85.8668 94.6355 92.5444 C 0.0 **** 0.0
45775 C 84.6859 95.0984 90.3386 C 0.0 **** 0.0
45776 O 92.4735 98.3837 99.5742 O 0.0 **** 0.0
45777 C 93.6849 93.2994 111.528 C 0.0 **** 0.0
45778 C 93.8968 92.7438 112.947 C 0.0 **** 0.0
45779 C 93.8238 93.8602 114.037 C 0.0 **** 0.0
45780 C 94.0294 95.2248 113.473 C 0.0 **** 0.0
45781 C 94.1915 96.3467 114.466 C 0.0 **** 0.0
45782 C 95.1133 96.0939 115.661 C 0.0 **** 0.0
45783 C 95.0892 94.6137 116.209 C 0.0 **** 0.0
45784 C 94.9638 93.589 115.055 C 0.0 **** 0.0
45785 C 94.0106 94.4307 117.239 C 0.0 **** 0.0
45786 C 94.143 95.4666 118.375 C 0.0 **** 0.0
45787 C 93.8406 96.8781 117.818 C 0.0 **** 0.0
45788 C 94.883 97.1769 116.73 C 0.0 **** 0.0
45789 C 94.507 98.5675 116.088 C 0.0 **** 0.0
45790 C 95.1593 98.7338 114.744 C 0.0 **** 0.0
45791 C 94.6642 97.6475 113.793 C 0.0 **** 0.0
45792 C 94.8292 99.6132 117.132 C 0.0 **** 0.0
45793 C 93.8085 99.3497 118.291 C 0.0 **** 0.0
45794 C 94.0635 97.9626 118.876 C 0.0 **** 0.0
45795 C 93.8821 100.477 113.33 C 0.0 **** 0.0
45796 C 95.1556 100.185 114.157 C 0.0 **** 0.0
45797 C 94.7598 101.04 116.552 C 0.0 **** 0.0
45798 C 95.5712 101.19 115.252 C 0.0 **** 0.0
45799 C 95.759 102.645 114.745 C 0.0 **** 0.0
45800 C 96.2288 103.532 115.906 C 0.0 **** 0.0
45801 C 95.3092 103.456 117.104 C 0.0 **** 0.0
45802 C 95.2254 102.031 117.563 C 0.0 **** 0.0
45803 O 95.6032 101.701 118.689 O 0.0 **** 0.0
45804 H 83.1666 81.7593 88.4405 H 0.0 **** 0.0
45805 H 82.4753 83.1293 89.3956 H 0.0 **** 0.0
45806 H 84.4013 83.4676 87.4251 H 0.0 **** 0.0
45807 H 84.0917 84.5703 88.7333 H 0.0 **** 0.0
45808 H 86.0848 82.3221 88.8241 H 0.0 **** 0.0
45809 H 86.5432 82.7061 91.0579 H 0.0 **** 0.0
45810 H 83.6447 83.7482 91.3517 H 0.0 **** 0.0
45811 H 84.5427 82.4258 92.1903 H 0.0 **** 0.0
45812 H 85.346 85.4751 90.7748 H 0.0 **** 0.0
45813 H 87.3549 86.4668 90.4181 H 0.0 **** 0.0
45814 H 88.4644 83.7818 89.6484 H 0.0 **** 0.0
45815 H 88.5858 85.3823 88.8083 H 0.0 **** 0.0
45816 H 87.1613 83.8694 87.5601 H 0.0 **** 0.0
45817 H 86.208 85.2015 88.2168 H 0.0 **** 0.0
45818 H 89.3252 85.6547 93.4039 H 0.0 **** 0.0
45819 H 87.5959 84.004 93.6939 H 0.0 **** 0.0
45820 H 85.4402 86.0187 92.9407 H 0.0 **** 0.0
45821 H 85.2781 84.2621 93.2245 H 0.0 **** 0.0
45822 H 87.0468 87.5261 92.4921 H 0.0 **** 0.0
45823 H 85.5679 87.2693 98.1614 H 0.0 **** 0.0
45824 H 84.7553 87.2617 96.5188 H 0.0 **** 0.0
45825 H 84.8815 85.0575 97.3731 H 0.0 **** 0.0
45826 H 86.5194 85.2123 98.0184 H 0.0 **** 0.0
45827 H 86.311 83.8145 95.7275 H 0.0 **** 0.0
45828 H 87.5545 89.7757 91.8428 H 0.0 **** 0.0
45829 H 91.7201 89.0626 91.8587 H 0.0 **** 0.0
45830 H 91.7469 88.2917 90.1856 H 0.0 **** 0.0
45831 H 90.3807 86.7687 91.3445 H 0.0 **** 0.0
45832 H 92.2832 90.6785 89.3811 H 0.0 **** 0.0
45833 H 90.9697 90.1479 88.4299 H 0.0 **** 0.0
45834 H 91.0109 92.6382 88.1734 H 0.0 **** 0.0
45835 H 91.6307 92.8311 89.9011 H 0.0 **** 0.0
45836 H 86.6192 91.4227 90.2037 H 0.0 **** 0.0
45837 H 87.1048 92.1052 91.8536 H 0.0 **** 0.0
45838 H 86.539 93.4637 89.2347 H 0.0 **** 0.0
45839 H 88.447 94.578 91.4395 H 0.0 **** 0.0
45840 H 87.6665 95.621 90.0624 H 0.0 **** 0.0
45841 H 89.9635 94.7985 89.5084 H 0.0 **** 0.0
45842 H 88.6764 94.1488 88.3931 H 0.0 **** 0.0
45843 H 89.4722 92.311 93.2424 H 0.0 **** 0.0
45844 H 89.3765 96.1012 97.5234 H 0.0 **** 0.0
45845 H 90.1461 96.9588 99.6055 H 0.0 **** 0.0
45846 H 85.7354 90.969 99.8831 H 0.0 **** 0.0
45847 H 90.0945 99.3464 103.332 H 0.0 **** 0.0
45848 H 90.1645 98.8235 101.176 H 0.0 **** 0.0
45849 H 93.2176 98.9533 101.402 H 0.0 **** 0.0
45850 H 90.6603 100.502 99.5834 H 0.0 **** 0.0
45851 H 91.9876 101.272 100.448 H 0.0 **** 0.0
45852 H 89.0097 101.195 101.399 H 0.0 **** 0.0
45853 H 89.7388 102.528 100.571 H 0.0 **** 0.0
45854 H 91.2762 103.051 102.362 H 0.0 **** 0.0
45855 H 92.4625 101.21 103.055 H 0.0 **** 0.0
45856 H 90.3815 100.63 105.278 H 0.0 **** 0.0
45857 H 92.1632 100.669 105.429 H 0.0 **** 0.0
45858 H 92.1359 103.085 105.009 H 0.0 **** 0.0
45859 H 91.1936 102.762 106.464 H 0.0 **** 0.0
45860 H 90.3895 104.433 104.465 H 0.0 **** 0.0
45861 H 89.2456 103.392 105.447 H 0.0 **** 0.0
45862 H 88.9766 101.904 103.814 H 0.0 **** 0.0
45863 H 86.2966 89.5101 104.856 H 0.0 **** 0.0
45864 H 85.0824 89.0118 102.866 H 0.0 **** 0.0
45865 H 84.2013 91.8153 102.026 H 0.0 **** 0.0
45866 H 83.3753 90.2229 101.853 H 0.0 **** 0.0
45867 H 82.0783 91.5485 103.281 H 0.0 **** 0.0
45868 H 83.4704 92.2965 104.082 H 0.0 **** 0.0
45869 H 82.4207 89.355 104.439 H 0.0 **** 0.0
45870 H 82.4545 90.7813 105.679 H 0.0 **** 0.0
45871 H 84.286 88.7076 105.173 H 0.0 **** 0.0
45872 H 84.349 89.8869 106.45 H 0.0 **** 0.0
45873 H 87.2275 92.7843 106.761 H 0.0 **** 0.0
45874 H 89.907 92.4245 107.77 H 0.0 **** 0.0
45875 H 90.6449 98.4031 106.318 H 0.0 **** 0.0
45876 H 93.2479 99.5302 108.047 H 0.0 **** 0.0
45877 H 94.1097 98.5253 109.862 H 0.0 **** 0.0
45878 H 91.6959 99.4466 111.493 H 0.0 **** 0.0
45879 H 93.6858 101.263 110.095 H 0.0 **** 0.0
45880 H 92.4771 101.878 111.266 H 0.0 **** 0.0
45881 H 91.9737 101.991 108.666 H 0.0 **** 0.0
45882 H 90.6787 101.572 109.816 H 0.0 **** 0.0
45883 H 90.8598 100.222 107.651 H 0.0 **** 0.0
45884 H 90.4303 99.3436 109.2 H 0.0 **** 0.0
45885 H 84.938 93.1693 91.3595 H 0.0 **** 0.0
45886 H 84.8997 94.73 93.0845 H 0.0 **** 0.0
45887 H 86.3144 95.6522 92.4932 H 0.0 **** 0.0
45888 H 86.5441 93.9446 93.1479 H 0.0 **** 0.0
45889 H 83.9562 94.5394 89.6999 H 0.0 **** 0.0
45890 H 85.3155 95.7186 89.6693 H 0.0 **** 0.0
45891 H 84.0282 95.7822 90.9932 H 0.0 **** 0.0
45892 H 92.9994 99.1348 99.282 H 0.0 **** 0.0
45893 H 93.3834 92.4813 110.857 H 0.0 **** 0.0
45894 H 94.8641 92.1282 112.908 H 0.0 **** 0.0
45895 H 94.9493 92.5442 115.445 H 0.0 **** 0.0
45896 H 94.1339 93.4307 117.713 H 0.0 **** 0.0
45897 H 93.3515 95.2224 119.192 H 0.0 **** 0.0
45898 H 93.8418 100.075 119.101 H 0.0 **** 0.0
45899 H 93.3856 97.7592 119.676 H 0.0 **** 0.0
45900 H 93.8781 101.422 112.861 H 0.0 **** 0.0
45901 H 96.4634 102.641 113.916 H 0.0 **** 0.0
45902 H 94.7741 103.049 114.416 H 0.0 **** 0.0
45903 H 96.2553 104.559 115.518 H 0.0 **** 0.0
45904 H 97.3091 103.291 116.102 H 0.0 **** 0.0
45905 H 94.2804 103.801 116.848 H 0.0 **** 0.0
45906 H 95.6405 104.086 117.91 H 0.0 **** 0.0
45907 C 40.8249 39.2954 81.8527 C 0.0 **** 0.0
45908 C 40.6221 38.736 80.3985 C 0.0 **** 0.0
45909 C 40.904 39.8152 79.3276 C 0.0 **** 0.0
45910 C 40.1355 41.1224 79.7319 C 0.0 **** 0.0
45911 C 40.3603 41.4439 81.2532 C 0.0 **** 0.0
45912 O 41.28 40.5859 81.8571 O 0.0 **** 0.0
45913 C 38.6058 40.9878 79.3761 C 0.0 **** 0.0
45914 C 38.3027 39.9972 78.2204 C 0.0 **** 0.0
45915 C 39.4448 39.9803 77.2228 C 0.0 **** 0.0
45916 C 40.7133 39.3341 77.8539 C 0.0 **** 0.0
45917 O 37.0166 40.0779 77.5969 O 0.0 **** 0.0
45918 C 36.0624 40.7709 78.3579 C 0.0 **** 0.0
45919 C 36.4803 42.2082 78.6995 C 0.0 **** 0.0
45920 C 37.9032 42.3366 79.1826 C 0.0 **** 0.0
45921 C 35.4099 42.8548 79.6092 C 0.0 **** 0.0
45922 C 34.9671 42.1157 80.7702 C 0.0 **** 0.0
45923 C 34.4268 40.7655 80.3449 C 0.0 **** 0.0
45924 C 35.4408 39.9493 79.5281 C 0.0 **** 0.0
45925 C 34.1238 39.9707 81.6718 C 0.0 **** 0.0
45926 C 33.0888 40.6825 82.5842 C 0.0 **** 0.0
45927 C 33.5147 42.1083 82.8931 C 0.0 **** 0.0
45928 C 34.0524 42.9412 81.7005 C 0.0 **** 0.0
45929 C 32.9166 43.6291 80.8707 C 0.0 **** 0.0
45930 C 33.431 44.5399 79.7901 C 0.0 **** 0.0
45931 C 34.6368 43.9757 79.089 C 0.0 **** 0.0
45932 O 32.4553 42.7393 83.5673 O 0.0 **** 0.0
45933 C 32.4057 42.2008 84.854 C 0.0 **** 0.0
45934 C 31.9912 40.7348 84.8168 C 0.0 **** 0.0
45935 C 32.9527 39.9724 83.8921 C 0.0 **** 0.0
45936 C 34.722 38.7065 79.1553 C 0.0 **** 0.0
45937 C 34.5712 37.7744 80.3392 C 0.0 **** 0.0
45938 C 33.6602 38.4929 81.3666 C 0.0 **** 0.0
45939 C 34.0778 36.4123 79.858 C 0.0 **** 0.0
45940 C 33.1842 36.3622 78.8165 C 0.0 **** 0.0
45941 C 32.8792 37.6195 77.984 C 0.0 **** 0.0
45942 C 33.9816 38.5917 78.0364 C 0.0 **** 0.0
45943 C 32.6516 35.0388 78.3251 C 0.0 **** 0.0
45944 C 32.544 34.0834 79.4701 C 0.0 **** 0.0
45945 C 33.8844 33.9708 80.1908 C 0.0 **** 0.0
45946 C 34.5988 35.0912 80.4377 C 0.0 **** 0.0
45947 C 35.9286 35.1188 81.1112 C 0.0 **** 0.0
45948 C 36.4544 33.6996 81.442 C 0.0 **** 0.0
45949 C 35.3172 32.7221 81.7978 C 0.0 **** 0.0
45950 C 34.3627 32.6111 80.6506 C 0.0 **** 0.0
45951 C 32.67 38.488 83.8039 C 0.0 **** 0.0
45952 C 33.6223 37.8007 82.7708 C 0.0 **** 0.0
45953 C 31.9564 40.215 86.2669 C 0.0 **** 0.0
45954 C 31.6957 38.7093 86.3057 C 0.0 **** 0.0
45955 S 33.0493 37.8136 85.4684 S 0.0 **** 0.0
45956 C 31.689 38.1926 87.7023 C 0.0 **** 0.0
45957 C 30.6117 38.9217 88.5159 C 0.0 **** 0.0
45958 C 30.9393 40.4339 88.557 C 0.0 **** 0.0
45959 C 30.9325 41.0096 87.1359 C 0.0 **** 0.0
45960 C 29.9299 41.166 89.4535 C 0.0 **** 0.0
45961 C 30.2247 40.6976 90.8969 C 0.0 **** 0.0
45962 C 29.8973 39.2146 90.9982 C 0.0 **** 0.0
45963 C 30.4707 38.2997 89.8663 C 0.0 **** 0.0
45964 C 30.172 38.6391 92.3643 C 0.0 **** 0.0
45965 C 29.533 39.4355 93.5076 C 0.0 **** 0.0
45966 C 29.6666 40.9932 93.4109 C 0.0 **** 0.0
45967 C 29.376 41.4805 91.9599 C 0.0 **** 0.0
45968 C 31.3274 42.4885 87.1656 C 0.0 **** 0.0
45969 C 31.4898 43.0783 85.733 C 0.0 **** 0.0
45970 C 30.1415 42.6626 89.3726 C 0.0 **** 0.0
45971 C 30.3862 43.3612 88.0289 C 0.0 **** 0.0
45972 C 29.7009 43.0014 91.8018 C 0.0 **** 0.0
45973 C 29.3033 43.4646 90.3891 C 0.0 **** 0.0
45974 C 28.7688 41.8399 94.379 C 0.0 **** 0.0
45975 C 29.2264 43.2878 94.3046 C 0.0 **** 0.0
45976 C 29.0606 43.8343 92.8956 C 0.0 **** 0.0
45977 O 30.0135 38.963 94.7318 O 0.0 **** 0.0
45978 C 31.4232 39.1672 94.9507 C 0.0 **** 0.0
45979 C 32.2719 38.9604 93.6402 C 0.0 **** 0.0
45980 C 31.5734 38.0126 92.7226 C 0.0 **** 0.0
45981 C 33.7082 38.4261 93.9529 C 0.0 **** 0.0
45982 C 34.0974 38.8627 95.3314 C 0.0 **** 0.0
45983 C 33.2911 38.1066 96.4376 C 0.0 **** 0.0
45984 C 31.7399 38.1282 96.0541 C 0.0 **** 0.0
45985 C 30.8582 38.3734 97.2787 C 0.0 **** 0.0
45986 C 31.4075 37.6613 98.5702 C 0.0 **** 0.0
45987 C 32.8956 37.8551 98.7961 C 0.0 **** 0.0
45988 N 33.5718 38.6701 97.7622 N 0.0 **** 0.0
45989 C 30.95 44.7918 88.1878 C 0.0 **** 0.0
45990 C 30.7588 45.3693 89.6151 C 0.0 **** 0.0
45991 C 29.4057 44.9907 90.2394 C 0.0 **** 0.0
45992 O 31.0351 46.7535 89.7353 O 0.0 **** 0.0
45993 C 30.327 47.485 88.7464 C 0.0 **** 0.0
45994 C 30.8708 46.9983 87.4093 C 0.0 **** 0.0
45995 O 30.4801 45.6646 87.1378 O 0.0 **** 0.0
45996 C 32.4057 47.2242 87.3118 C 0.0 **** 0.0
45997 C 32.8657 48.619 87.8559 C 0.0 **** 0.0
45998 C 31.6802 49.5738 88.0917 C 0.0 **** 0.0
45999 C 30.5387 49.0092 88.9403 C 0.0 **** 0.0
46000 C 29.506 45.2723 92.7829 C 0.0 **** 0.0
46001 C 29.0654 45.8393 91.4757 C 0.0 **** 0.0
46002 C 28.4909 44.1978 95.3254 C 0.0 **** 0.0
46003 C 29.0146 45.6561 95.2822 C 0.0 **** 0.0
46004 C 28.8739 46.1757 93.8736 C 0.0 **** 0.0
46005 C 28.5761 43.6982 96.7438 C 0.0 **** 0.0
46006 C 28.0038 42.2778 96.7815 C 0.0 **** 0.0
46007 C 28.7007 41.2596 95.8157 C 0.0 **** 0.0
46008 O 28.2358 46.464 96.1557 O 0.0 **** 0.0
46009 C 28.4153 46.0353 97.4526 C 0.0 **** 0.0
46010 C 27.763 44.6684 97.5916 C 0.0 **** 0.0
46011 C 27.4291 41.756 98.1445 C 0.0 **** 0.0
46012 C 26.9287 42.8431 99.0929 C 0.0 **** 0.0
46013 C 27.6815 44.1957 99.0349 C 0.0 **** 0.0
46014 C 26.9293 42.4361 100.605 C 0.0 **** 0.0
46015 C 26.4514 41.0196 100.79 C 0.0 **** 0.0
46016 C 27.4048 40.0701 100.074 C 0.0 **** 0.0
46017 C 28.2607 40.6898 98.912 C 0.0 **** 0.0
46018 C 26.8933 45.291 99.8387 C 0.0 **** 0.0
46019 C 27.5917 46.641 99.8237 C 0.0 **** 0.0
46020 C 27.7821 47.067 98.3304 C 0.0 **** 0.0
46021 C 26.0918 43.4845 101.403 C 0.0 **** 0.0
46022 C 26.7098 44.9 101.327 C 0.0 **** 0.0
46023 C 37.5716 33.7144 82.4954 C 0.0 **** 0.0
46024 C 37.1015 34.2853 83.879 C 0.0 **** 0.0
46025 C 38.2206 32.3402 82.6893 C 0.0 **** 0.0
46026 O 32.3281 37.6658 91.6051 O 0.0 **** 0.0
46027 C 28.6224 48.3489 98.357 C 0.0 **** 0.0
46028 C 27.7992 49.4541 99.0626 C 0.0 **** 0.0
46029 C 27.3923 49.0867 100.491 C 0.0 **** 0.0
46030 C 26.6637 47.7439 100.498 C 0.0 **** 0.0
46031 C 26.4003 47.3687 101.943 C 0.0 **** 0.0
46032 C 25.518 48.3757 102.639 C 0.0 **** 0.0
46033 C 26.0318 49.809 102.547 C 0.0 **** 0.0
46034 C 26.4759 50.1329 101.068 C 0.0 **** 0.0
46035 C 24.8633 50.6942 102.998 C 0.0 **** 0.0
46036 C 24.6359 50.3895 104.49 C 0.0 **** 0.0
46037 C 24.2174 48.9441 104.675 C 0.0 **** 0.0
46038 C 25.2002 47.9836 104.093 C 0.0 **** 0.0
46039 C 24.5771 46.6147 104.129 C 0.0 **** 0.0
46040 C 25.4575 45.5742 103.471 C 0.0 **** 0.0
46041 C 25.8163 45.9497 102.018 C 0.0 **** 0.0
46042 C 24.2487 46.2005 105.583 C 0.0 **** 0.0
46043 C 23.3675 47.2364 106.236 C 0.0 **** 0.0
46044 C 23.9444 48.6202 106.116 C 0.0 **** 0.0
46045 C 25.8578 43.1965 102.893 C 0.0 **** 0.0
46046 C 24.8032 44.2054 103.458 C 0.0 **** 0.0
46047 C 23.5937 44.8017 105.686 C 0.0 **** 0.0
46048 C 24.3715 43.7597 104.884 C 0.0 **** 0.0
46049 C 23.7202 42.3531 104.893 C 0.0 **** 0.0
46050 C 22.5515 42.2413 105.868 C 0.0 **** 0.0
46051 C 22.9085 42.8144 107.215 C 0.0 **** 0.0
46052 C 23.4144 44.2052 107.078 C 0.0 **** 0.0
46053 O 23.774 44.7951 108.063 O 0.0 **** 0.0
46054 H 41.5901 38.676 82.3671 H 0.0 **** 0.0
46055 H 39.8298 39.2093 82.4094 H 0.0 **** 0.0
46056 H 41.3207 37.8716 80.2482 H 0.0 **** 0.0
46057 H 39.5961 38.348 80.2803 H 0.0 **** 0.0
46058 H 42.0089 40.0145 79.3474 H 0.0 **** 0.0
46059 H 40.5713 42.0025 79.134 H 0.0 **** 0.0
46060 H 39.4118 41.3518 81.8346 H 0.0 **** 0.0
46061 H 40.7012 42.4959 81.4141 H 0.0 **** 0.0
46062 H 38.1491 40.5595 80.2942 H 0.0 **** 0.0
46063 H 38.253 38.9932 78.6826 H 0.0 **** 0.0
46064 H 39.6502 41.012 76.9051 H 0.0 **** 0.0
46065 H 39.1698 39.4198 76.3164 H 0.0 **** 0.0
46066 H 41.5846 39.7326 77.2906 H 0.0 **** 0.0
46067 H 40.6743 38.24 77.7033 H 0.0 **** 0.0
46068 H 35.2043 40.9628 77.6979 H 0.0 **** 0.0
46069 H 36.5046 42.7818 77.7696 H 0.0 **** 0.0
46070 H 37.8873 42.9848 80.0841 H 0.0 **** 0.0
46071 H 38.5624 42.8765 78.4221 H 0.0 **** 0.0
46072 H 36.258 39.7537 80.2239 H 0.0 **** 0.0
46073 H 32.1504 42.8942 80.5407 H 0.0 **** 0.0
46074 H 32.3499 44.2896 81.6189 H 0.0 **** 0.0
46075 H 33.7312 45.5338 80.1982 H 0.0 **** 0.0
46076 H 32.6399 44.8045 79.0717 H 0.0 **** 0.0
46077 H 34.8791 44.416 78.1218 H 0.0 **** 0.0
46078 H 35.5945 37.6762 80.8232 H 0.0 **** 0.0
46079 H 31.9455 38.0837 78.315 H 0.0 **** 0.0
46080 H 32.6604 37.3554 76.8934 H 0.0 **** 0.0
46081 H 33.9552 39.3181 77.2693 H 0.0 **** 0.0
46082 H 31.6251 35.1709 77.8687 H 0.0 **** 0.0
46083 H 33.3282 34.6027 77.5392 H 0.0 **** 0.0
46084 H 32.2158 33.0699 79.0841 H 0.0 **** 0.0
46085 H 31.7914 34.4846 80.1876 H 0.0 **** 0.0
46086 H 36.674 35.6136 80.4694 H 0.0 **** 0.0
46087 H 35.7976 35.7212 82.073 H 0.0 **** 0.0
46088 H 36.9721 33.2947 80.5083 H 0.0 **** 0.0
46089 H 34.7481 32.987 82.6869 H 0.0 **** 0.0
46090 H 35.6855 31.696 81.9881 H 0.0 **** 0.0
46091 H 33.4376 32.0399 80.9813 H 0.0 **** 0.0
46092 H 34.9049 32.128 79.823 H 0.0 **** 0.0
46093 H 33.341 36.7569 82.7156 H 0.0 **** 0.0
46094 H 31.422 37.1364 87.687 H 0.0 **** 0.0
46095 H 29.8848 37.3223 89.8366 H 0.0 **** 0.0
46096 H 31.9978 44.075 85.8076 H 0.0 **** 0.0
46097 H 31.5645 40.1887 95.3252 H 0.0 **** 0.0
46098 H 32.3167 39.9608 93.1504 H 0.0 **** 0.0
46099 H 31.383 37.1003 93.3298 H 0.0 **** 0.0
46100 H 33.6834 37.3062 93.9522 H 0.0 **** 0.0
46101 H 34.4383 38.8304 93.2101 H 0.0 **** 0.0
46102 H 33.9484 39.9559 95.4907 H 0.0 **** 0.0
46103 H 35.1362 38.6445 95.551 H 0.0 **** 0.0
46104 H 33.7046 37.0463 96.449 H 0.0 **** 0.0
46105 H 31.4941 37.1159 95.6988 H 0.0 **** 0.0
46106 H 30.7803 39.4985 97.4321 H 0.0 **** 0.0
46107 H 29.8616 37.9396 97.1238 H 0.0 **** 0.0
46108 H 31.1533 36.5305 98.5372 H 0.0 **** 0.0
46109 H 30.9158 38.1157 99.4606 H 0.0 **** 0.0
46110 H 33.3794 36.8595 98.8385 H 0.0 **** 0.0
46111 H 33.1222 38.4209 99.7371 H 0.0 **** 0.0
46112 H 33.2589 39.666 97.7659 H 0.0 **** 0.0
46113 H 29.245 47.3138 88.7936 H 0.0 **** 0.0
46114 H 30.3575 47.5976 86.614 H 0.0 **** 0.0
46115 H 32.9323 46.4499 87.8886 H 0.0 **** 0.0
46116 H 32.6277 47.0583 86.2711 H 0.0 **** 0.0
46117 H 33.6014 49.0501 87.1061 H 0.0 **** 0.0
46118 H 33.3535 48.4659 88.7996 H 0.0 **** 0.0
46119 H 31.2585 49.8638 87.1294 H 0.0 **** 0.0
46120 H 32.0412 50.4515 88.6644 H 0.0 **** 0.0
46121 H 29.6091 49.5409 88.7363 H 0.0 **** 0.0
46122 H 30.7794 49.2064 90.0279 H 0.0 **** 0.0
46123 H 29.3765 46.9018 91.2973 H 0.0 **** 0.0
46124 H 29.1633 47.2103 93.7397 H 0.0 **** 0.0
46125 H 28.153 40.3038 95.8343 H 0.0 **** 0.0
46126 H 26.5904 41.1669 97.8261 H 0.0 **** 0.0
46127 H 25.868 43.0938 98.7686 H 0.0 **** 0.0
46128 H 27.9631 42.5324 100.986 H 0.0 **** 0.0
46129 H 25.4521 40.9111 100.324 H 0.0 **** 0.0
46130 H 26.378 40.6858 101.841 H 0.0 **** 0.0
46131 H 26.8222 39.2183 99.6379 H 0.0 **** 0.0
46132 H 28.0447 39.5933 100.83 H 0.0 **** 0.0
46133 H 28.5893 39.9091 98.1885 H 0.0 **** 0.0
46134 H 29.1527 41.2197 99.3123 H 0.0 **** 0.0
46135 H 38.4144 34.4015 82.212 H 0.0 **** 0.0
46136 H 36.15 33.8637 84.162 H 0.0 **** 0.0
46137 H 36.944 35.3638 83.8107 H 0.0 **** 0.0
46138 H 37.8552 33.962 84.6675 H 0.0 **** 0.0
46139 H 37.6198 31.6518 83.3217 H 0.0 **** 0.0
46140 H 39.2016 32.5065 83.16 H 0.0 **** 0.0
46141 H 38.4271 31.8438 81.7344 H 0.0 **** 0.0
46142 H 32.72 36.7221 91.7501 H 0.0 **** 0.0
46143 H 28.8738 48.5971 97.2816 H 0.0 **** 0.0
46144 H 28.4018 50.3628 99.1305 H 0.0 **** 0.0
46145 H 27.0131 51.1094 101.084 H 0.0 **** 0.0
46146 H 25.1946 51.7679 102.982 H 0.0 **** 0.0
46147 H 23.8628 51.0836 104.921 H 0.0 **** 0.0
46148 H 23.2507 46.9641 107.308 H 0.0 **** 0.0
46149 H 23.1733 49.3075 106.507 H 0.0 **** 0.0
46150 H 25.5482 42.1811 103.055 H 0.0 **** 0.0
46151 H 23.3513 42.1361 103.831 H 0.0 **** 0.0
46152 H 24.5185 41.6052 105.205 H 0.0 **** 0.0
46153 H 22.2165 41.2063 106.012 H 0.0 **** 0.0
46154 H 21.7202 42.8067 105.519 H 0.0 **** 0.0
46155 H 23.6537 42.118 107.779 H 0.0 **** 0.0
46156 H 21.9998 42.8648 107.829 H 0.0 **** 0.0
46157 C 1.77668 25.3567 17.3311 C 0.0 **** 0.0
46158 C 2.03096 25.0902 15.827 C 0.0 **** 0.0
46159 C 3.11065 23.9935 15.5762 C 0.0 **** 0.0
46160 C 4.28097 24.1425 16.5605 C 0.0 **** 0.0
46161 C 3.84378 24.5645 17.9972 C 0.0 **** 0.0
46162 O 2.44132 24.4507 18.2182 O 0.0 **** 0.0
46163 C 5.41072 25.0567 15.8805 C 0.0 **** 0.0
46164 C 6.01016 24.3402 14.5956 C 0.0 **** 0.0
46165 C 4.95504 23.3587 13.9476 C 0.0 **** 0.0
46166 C 3.51057 23.9495 14.0833 C 0.0 **** 0.0
46167 O 7.17713 23.6447 15.0053 O 0.0 **** 0.0
46168 C 8.27726 24.5536 15.2658 C 0.0 **** 0.0
46169 C 7.8874 25.705 16.2164 C 0.0 **** 0.0
46170 C 6.54452 25.3992 16.8968 C 0.0 **** 0.0
46171 C 7.86359 27.0868 15.5849 C 0.0 **** 0.0
46172 C 7.59986 27.174 14.1723 C 0.0 **** 0.0
46173 C 8.53694 26.351 13.3561 C 0.0 **** 0.0
46174 C 8.97792 24.9986 13.9509 C 0.0 **** 0.0
46175 C 9.64431 27.2085 12.7403 C 0.0 **** 0.0
46176 C 9.03985 28.4041 11.9949 C 0.0 **** 0.0
46177 C 8.36923 29.359 12.9577 C 0.0 **** 0.0
46178 C 7.24292 28.581 13.5971 C 0.0 **** 0.0
46179 C 6.52568 29.4225 14.639 C 0.0 **** 0.0
46180 C 7.53026 29.57 15.8584 C 0.0 **** 0.0
46181 C 7.97502 28.2386 16.3805 C 0.0 **** 0.0
46182 O 7.83506 30.4961 12.3294 O 0.0 **** 0.0
46183 C 8.86062 31.1308 11.6237 C 0.0 **** 0.0
46184 C 9.29479 30.2396 10.4253 C 0.0 **** 0.0
46185 C 10.029 29.1127 11.0433 C 0.0 **** 0.0
46186 C 10.4895 24.9211 13.8818 C 0.0 **** 0.0
46187 C 11.0991 25.014 12.4892 C 0.0 **** 0.0
46188 C 10.5155 26.3112 11.8395 C 0.0 **** 0.0
46189 C 12.5728 24.9821 12.4653 C 0.0 **** 0.0
46190 C 13.2726 25.3188 13.5688 C 0.0 **** 0.0
46191 C 12.6661 25.4962 14.8992 C 0.0 **** 0.0
46192 C 11.2438 25.0462 14.9644 C 0.0 **** 0.0
46193 C 14.7629 25.3738 13.4643 C 0.0 **** 0.0
46194 C 15.1828 25.9982 12.1041 C 0.0 **** 0.0
46195 C 14.437 25.3942 10.9249 C 0.0 **** 0.0
46196 C 13.3174 24.6764 11.173 C 0.0 **** 0.0
46197 C 12.6939 23.7439 10.1403 C 0.0 **** 0.0
46198 C 13.5525 23.6923 8.82237 C 0.0 **** 0.0
46199 C 14.0845 25.0974 8.49333 C 0.0 **** 0.0
46200 C 15.0468 25.5263 9.54231 C 0.0 **** 0.0
46201 C 10.3926 28.0557 9.97771 C 0.0 **** 0.0
46202 C 11.2459 27.016 10.6971 C 0.0 **** 0.0
46203 C 10.1127 31.0007 9.35884 C 0.0 **** 0.0
46204 C 10.2051 30.0837 8.15056 C 0.0 **** 0.0
46205 S 11.38 28.7378 8.54543 S 0.0 **** 0.0
46206 C 10.7215 30.7844 6.97579 C 0.0 **** 0.0
46207 C 9.95433 32.0844 6.68442 C 0.0 **** 0.0
46208 C 9.99931 33.0196 7.8796 C 0.0 **** 0.0
46209 C 9.39533 32.2942 9.0612 C 0.0 **** 0.0
46210 C 9.1765 34.2995 7.54199 C 0.0 **** 0.0
46211 C 9.79655 34.9747 6.31475 C 0.0 **** 0.0
46212 C 9.76307 34.043 5.11075 C 0.0 **** 0.0
46213 C 10.5874 32.765 5.44912 C 0.0 **** 0.0
46214 C 10.2727 34.7434 3.81659 C 0.0 **** 0.0
46215 C 9.47935 36.0293 3.50461 C 0.0 **** 0.0
46216 C 8.80789 36.7468 4.67629 C 0.0 **** 0.0
46217 C 9.45942 36.4713 6.0304 C 0.0 **** 0.0
46218 C 9.39207 33.1801 10.3201 C 0.0 **** 0.0
46219 C 8.38015 32.5249 11.2711 C 0.0 **** 0.0
46220 C 8.67575 35.1854 8.72674 C 0.0 **** 0.0
46221 C 9.27087 34.7255 10.0891 C 0.0 **** 0.0
46222 C 8.58038 37.1235 7.13558 C 0.0 **** 0.0
46223 C 8.97332 36.6904 8.53241 C 0.0 **** 0.0
46224 C 8.68203 38.2543 4.4482 C 0.0 **** 0.0
46225 C 7.94724 38.9927 5.59018 C 0.0 **** 0.0
46226 C 8.55489 38.6344 6.93003 C 0.0 **** 0.0
46227 O 8.46104 35.863 2.53345 O 0.0 **** 0.0
46228 C 7.80459 34.6151 2.69787 C 0.0 **** 0.0
46229 C 8.71943 33.4564 2.2876 C 0.0 **** 0.0
46230 C 10.1691 33.8833 2.52072 C 0.0 **** 0.0
46231 C 8.52502 33.0985 0.80324 C 0.0 **** 0.0
46232 C 7.13024 32.5486 0.638683 C 0.0 **** 0.0
46233 C 6.03925 33.4974 1.11004 C 0.0 **** 0.0
46234 C 6.47126 34.7322 1.93079 C 0.0 **** 0.0
46235 C 5.32352 35.1421 2.97119 C 0.0 **** 0.0
46236 C 3.95107 34.9816 2.30958 C 0.0 **** 0.0
46237 C 3.72707 33.5397 1.85561 C 0.0 **** 0.0
46238 N 4.93603 32.7463 1.71392 N 0.0 **** 0.0
46239 C 8.81476 35.5613 11.2756 C 0.0 **** 0.0
46240 C 9.02926 37.0437 10.9623 C 0.0 **** 0.0
46241 C 8.30627 37.491 9.65804 C 0.0 **** 0.0
46242 O 8.59345 37.8537 12.0615 O 0.0 **** 0.0
46243 C 9.45423 37.5306 13.1269 C 0.0 **** 0.0
46244 C 9.17696 36.0794 13.5624 C 0.0 **** 0.0
46245 O 9.52452 35.2381 12.4699 O 0.0 **** 0.0
46246 C 7.67392 35.8376 14.0362 C 0.0 **** 0.0
46247 C 7.01699 37.1826 14.5317 C 0.0 **** 0.0
46248 C 8.07749 38.0357 15.2333 C 0.0 **** 0.0
46249 C 9.21869 38.4848 14.3191 C 0.0 **** 0.0
46250 C 7.77342 39.3432 8.04865 C 0.0 **** 0.0
46251 C 8.42963 39.0004 9.37659 C 0.0 **** 0.0
46252 C 8.02378 40.5073 5.36095 C 0.0 **** 0.0
46253 C 7.31269 41.2874 6.46152 C 0.0 **** 0.0
46254 C 7.84196 40.8183 7.83316 C 0.0 **** 0.0
46255 C 7.27228 40.8751 4.08207 C 0.0 **** 0.0
46256 C 7.81895 40.135 2.90403 C 0.0 **** 0.0
46257 C 8.02509 38.6422 3.14733 C 0.0 **** 0.0
46258 O 7.54398 42.6732 6.27681 O 0.0 **** 0.0
46259 C 6.81935 43.1261 5.13385 C 0.0 **** 0.0
46260 C 7.33433 42.3993 3.87048 C 0.0 **** 0.0
46261 C 7.06286 40.4945 1.59424 C 0.0 **** 0.0
46262 C 6.89683 42.0423 1.46084 C 0.0 **** 0.0
46263 C 6.49718 42.8111 2.7131 C 0.0 **** 0.0
46264 C 5.8854 42.4513 0.358509 C 0.0 **** 0.0
46265 C 5.77723 41.4064 -0.78372 C 0.0 **** 0.0
46266 C 5.25533 40.0967 -0.168269 C 0.0 **** 0.0
46267 C 5.68737 39.793 1.34276 C 0.0 **** 0.0
46268 C 6.71199 44.2949 2.44828 C 0.0 **** 0.0
46269 C 6.32767 45.1694 3.62461 C 0.0 **** 0.0
46270 C 7.00925 44.6327 4.92807 C 0.0 **** 0.0
46271 C 6.30856 43.8702 -0.0542383 C 0.0 **** 0.0
46272 C 6.03741 44.8403 1.16869 C 0.0 **** 0.0
46273 C 12.8078 23.032 7.6493 C 0.0 **** 0.0
46274 C 11.8609 24.0217 6.86866 C 0.0 **** 0.0
46275 C 13.8136 22.375 6.65881 C 0.0 **** 0.0
46276 O 10.9793 32.7496 2.54516 O 0.0 **** 0.0
46277 C 6.57949 45.4928 6.12217 C 0.0 **** 0.0
46278 C 6.91699 46.985 5.83219 C 0.0 **** 0.0
46279 C 6.46491 47.5071 4.44491 C 0.0 **** 0.0
46280 C 6.85946 46.5564 3.3269 C 0.0 **** 0.0
46281 C 6.269 47.1351 2.04496 C 0.0 **** 0.0
46282 C 6.64875 48.6069 1.70115 C 0.0 **** 0.0
46283 C 6.52991 49.5358 2.93323 C 0.0 **** 0.0
46284 C 7.14969 48.8687 4.153 C 0.0 **** 0.0
46285 C 5.07229 49.9742 3.2383 C 0.0 **** 0.0
46286 C 4.47935 50.655 2.03512 C 0.0 **** 0.0
46287 C 4.42252 49.6322 0.903502 C 0.0 **** 0.0
46288 C 5.87336 49.1758 0.482768 C 0.0 **** 0.0
46289 C 5.90667 48.1767 -0.691286 C 0.0 **** 0.0
46290 C 5.68924 46.7022 -0.367741 C 0.0 **** 0.0
46291 C 6.50933 46.2141 0.855088 C 0.0 **** 0.0
46292 C 4.97894 48.6591 -1.82833 C 0.0 **** 0.0
46293 C 3.56651 49.0505 -1.35635 C 0.0 **** 0.0
46294 C 3.59922 50.1777 -0.291927 C 0.0 **** 0.0
46295 C 5.64278 44.4066 -1.32709 C 0.0 **** 0.0
46296 C 6.11285 45.8276 -1.5715 C 0.0 **** 0.0
46297 C 4.74682 47.5983 -2.90028 C 0.0 **** 0.0
46298 C 5.75266 46.4225 -2.95758 C 0.0 **** 0.0
46299 C 5.40762 45.405 -4.04742 C 0.0 **** 0.0
46300 C 5.36522 46.0408 -5.4442 C 0.0 **** 0.0
46301 C 4.36681 47.2325 -5.4668 C 0.0 **** 0.0
46302 C 4.61491 48.1932 -4.31137 C 0.0 **** 0.0
46303 O 4.69257 49.4058 -4.50426 O 0.0 **** 0.0
46304 H 0.711424 25.2656 17.5612 H 0.0 **** 0.0
46305 H 2.0091 26.4546 17.5842 H 0.0 **** 0.0
46306 H 1.09471 24.7425 15.4261 H 0.0 **** 0.0
46307 H 2.39016 26.043 15.3862 H 0.0 **** 0.0
46308 H 2.60627 23.0502 15.7898 H 0.0 **** 0.0
46309 H 4.73484 23.1194 16.6818 H 0.0 **** 0.0
46310 H 4.14671 25.6327 18.1775 H 0.0 **** 0.0
46311 H 4.42416 23.8861 18.7389 H 0.0 **** 0.0
46312 H 4.88094 25.9584 15.5637 H 0.0 **** 0.0
46313 H 6.21598 25.0539 13.7861 H 0.0 **** 0.0
46314 H 5.04812 22.3698 14.4317 H 0.0 **** 0.0
46315 H 5.11602 23.1946 12.8832 H 0.0 **** 0.0
46316 H 2.82238 23.3473 13.4378 H 0.0 **** 0.0
46317 H 3.44246 25.0053 13.6128 H 0.0 **** 0.0
46318 H 8.95337 23.8526 15.7755 H 0.0 **** 0.0
46319 H 8.66963 25.7509 17.0171 H 0.0 **** 0.0
46320 H 6.25932 26.2908 17.5006 H 0.0 **** 0.0
46321 H 6.70095 24.573 17.5885 H 0.0 **** 0.0
46322 H 8.59341 24.2653 13.2001 H 0.0 **** 0.0
46323 H 6.27646 30.4182 14.298 H 0.0 **** 0.0
46324 H 5.61713 28.8144 14.9996 H 0.0 **** 0.0
46325 H 6.98898 30.1246 16.6509 H 0.0 **** 0.0
46326 H 8.31909 30.2177 15.4894 H 0.0 **** 0.0
46327 H 8.16459 28.0614 17.4106 H 0.0 **** 0.0
46328 H 10.7228 24.1585 11.9056 H 0.0 **** 0.0
46329 H 12.7355 26.5478 15.222 H 0.0 **** 0.0
46330 H 13.2227 24.9033 15.6594 H 0.0 **** 0.0
46331 H 10.798 24.9935 15.9644 H 0.0 **** 0.0
46332 H 15.2103 25.8323 14.3541 H 0.0 **** 0.0
46333 H 15.1535 24.3427 13.553 H 0.0 **** 0.0
46334 H 16.2681 25.7695 11.9773 H 0.0 **** 0.0
46335 H 15.1524 27.1112 12.0265 H 0.0 **** 0.0
46336 H 12.7205 22.7492 10.5854 H 0.0 **** 0.0
46337 H 11.6443 24.0364 9.81157 H 0.0 **** 0.0
46338 H 14.4064 23.0489 9.02072 H 0.0 **** 0.0
46339 H 13.2592 25.8473 8.42635 H 0.0 **** 0.0
46340 H 14.6737 25.0789 7.57069 H 0.0 **** 0.0
46341 H 15.2515 26.6009 9.40812 H 0.0 **** 0.0
46342 H 15.9831 24.957 9.46549 H 0.0 **** 0.0
46343 H 11.6629 26.2937 9.98859 H 0.0 **** 0.0
46344 H 10.6642 30.1206 6.08022 H 0.0 **** 0.0
46345 H 10.5235 32.0288 4.63356 H 0.0 **** 0.0
46346 H 8.27417 33.0993 12.2053 H 0.0 **** 0.0
46347 H 7.54601 34.5054 3.76505 H 0.0 **** 0.0
46348 H 8.45856 32.5992 2.89018 H 0.0 **** 0.0
46349 H 10.5181 34.5037 1.68551 H 0.0 **** 0.0
46350 H 8.70568 33.9661 0.138247 H 0.0 **** 0.0
46351 H 9.2763 32.307 0.463439 H 0.0 **** 0.0
46352 H 7.00363 31.5597 1.14566 H 0.0 **** 0.0
46353 H 6.89248 32.4097 -0.38768 H 0.0 **** 0.0
46354 H 5.64394 33.9948 0.200441 H 0.0 **** 0.0
46355 H 6.61227 35.5931 1.22389 H 0.0 **** 0.0
46356 H 5.37224 34.4557 3.85444 H 0.0 **** 0.0
46357 H 5.41462 36.1908 3.33046 H 0.0 **** 0.0
46358 H 3.86667 35.6111 1.44056 H 0.0 **** 0.0
46359 H 3.16987 35.2283 3.05245 H 0.0 **** 0.0
46360 H 3.20472 33.5016 0.892683 H 0.0 **** 0.0
46361 H 3.02908 33.005 2.59593 H 0.0 **** 0.0
46362 H 5.20971 32.3275 2.6443 H 0.0 **** 0.0
46363 H 10.5164 37.6622 12.8549 H 0.0 **** 0.0
46364 H 9.83351 35.8061 14.4092 H 0.0 **** 0.0
46365 H 7.09629 35.4753 13.1929 H 0.0 **** 0.0
46366 H 7.65456 35.0688 14.8183 H 0.0 **** 0.0
46367 H 6.17305 36.9544 15.2309 H 0.0 **** 0.0
46368 H 6.53529 37.7156 13.6797 H 0.0 **** 0.0
46369 H 8.45963 37.509 16.1236 H 0.0 **** 0.0
46370 H 7.62307 39.0116 15.6576 H 0.0 **** 0.0
46371 H 10.1555 38.5711 14.8738 H 0.0 **** 0.0
46372 H 9.00191 39.5011 13.9225 H 0.0 **** 0.0
46373 H 7.87875 39.5312 10.1941 H 0.0 **** 0.0
46374 H 7.24381 41.3651 8.61629 H 0.0 **** 0.0
46375 H 8.66114 38.1991 2.30537 H 0.0 **** 0.0
46376 H 7.70984 40.1385 0.764217 H 0.0 **** 0.0
46377 H 7.92064 42.404 1.16759 H 0.0 **** 0.0
46378 H 4.87335 42.5325 0.780202 H 0.0 **** 0.0
46379 H 6.71774 41.3412 -1.34312 H 0.0 **** 0.0
46380 H 5.02506 41.7771 -1.48983 H 0.0 **** 0.0
46381 H 5.60442 39.2454 -0.821166 H 0.0 **** 0.0
46382 H 4.12544 40.1197 -0.188211 H 0.0 **** 0.0
46383 H 5.84563 38.7535 1.46338 H 0.0 **** 0.0
46384 H 4.90151 40.177 2.08038 H 0.0 **** 0.0
46385 H 12.139 22.2079 8.05928 H 0.0 **** 0.0
46386 H 12.4848 24.7503 6.28468 H 0.0 **** 0.0
46387 H 11.1984 24.583 7.57481 H 0.0 **** 0.0
46388 H 11.1941 23.5003 6.1496 H 0.0 **** 0.0
46389 H 14.0935 21.3911 7.06687 H 0.0 **** 0.0
46390 H 14.734 23.019 6.54299 H 0.0 **** 0.0
46391 H 13.3344 22.1952 5.66368 H 0.0 **** 0.0
46392 H 11.8731 32.9437 2.17482 H 0.0 **** 0.0
46393 H 7.00237 45.1602 7.09936 H 0.0 **** 0.0
46394 H 6.54339 47.6711 6.61372 H 0.0 **** 0.0
46395 H 8.24014 48.7049 3.90496 H 0.0 **** 0.0
46396 H 5.16081 50.7385 4.0513 H 0.0 **** 0.0
46397 H 3.47989 51.1148 2.29107 H 0.0 **** 0.0
46398 H 3.07302 48.1243 -0.871686 H 0.0 **** 0.0
46399 H 4.04787 51.1029 -0.659626 H 0.0 **** 0.0
46400 H 5.93986 43.7342 -2.10041 H 0.0 **** 0.0
46401 H 6.14347 44.5607 -4.05381 H 0.0 **** 0.0
46402 H 4.39177 44.9389 -3.8014 H 0.0 **** 0.0
46403 H 5.11992 45.2557 -6.21308 H 0.0 **** 0.0
46404 H 6.34936 46.488 -5.68759 H 0.0 **** 0.0
46405 H 3.32837 46.8226 -5.32392 H 0.0 **** 0.0
46406 H 4.45426 47.7749 -6.44043 H 0.0 **** 0.0
46407 C 35.7907 -10.5581 72.4839 C 0.0 **** 0.0
46408 C 34.6718 -9.51836 72.2851 C 0.0 **** 0.0
46409 C 35.2714 -8.14007 72.0425 C 0.0 **** 0.0
46410 C 36.3018 -7.71993 73.1575 C 0.0 **** 0.0
46411 C 36.9461 -9.00835 73.772 C 0.0 **** 0.0
46412 O 37.0475 -9.95266 72.735 O 0.0 **** 0.0
46413 C 35.5354 -6.8533 74.1999 C 0.0 **** 0.0
46414 C 35.0278 -5.53738 73.5746 C 0.0 **** 0.0
46415 C 34.6107 -5.7112 72.1107 C 0.0 **** 0.0
46416 C 34.1052 -7.15004 71.7944 C 0.0 **** 0.0
46417 O 35.9625 -4.45367 73.6271 O 0.0 **** 0.0
46418 C 36.4094 -4.13425 74.9414 C 0.0 **** 0.0
46419 C 37.1526 -5.33187 75.5412 C 0.0 **** 0.0
46420 C 36.2559 -6.56744 75.579 C 0.0 **** 0.0
46421 C 37.6222 -5.04082 76.9813 C 0.0 **** 0.0
46422 C 36.7863 -4.32851 77.9187 C 0.0 **** 0.0
46423 C 35.913 -3.21964 77.2741 C 0.0 **** 0.0
46424 C 35.2989 -3.62084 75.9047 C 0.0 **** 0.0
46425 C 34.9639 -2.63274 78.2859 C 0.0 **** 0.0
46426 C 35.772 -2.01134 79.44 C 0.0 **** 0.0
46427 C 36.5834 -3.10103 80.1027 C 0.0 **** 0.0
46428 C 37.5612 -3.69702 79.1227 C 0.0 **** 0.0
46429 C 38.474 -4.72168 79.7378 C 0.0 **** 0.0
46430 C 39.4996 -5.09538 78.7057 C 0.0 **** 0.0
46431 C 38.8843 -5.47028 77.3838 C 0.0 **** 0.0
46432 O 37.0832 -2.76855 81.4112 O 0.0 **** 0.0
46433 C 37.3217 -1.38356 81.5 C 0.0 **** 0.0
46434 C 36.0136 -0.57687 81.376 C 0.0 **** 0.0
46435 C 34.9757 -1.26295 80.495 C 0.0 **** 0.0
46436 C 34.6119 -2.36977 75.427 C 0.0 **** 0.0
46437 C 33.4697 -1.98888 76.3361 C 0.0 **** 0.0
46438 C 34.1611 -1.48576 77.6588 C 0.0 **** 0.0
46439 C 32.564 -0.934049 75.7228 C 0.0 **** 0.0
46440 C 33.1588 -0.0290372 74.9131 C 0.0 **** 0.0
46441 C 34.6603 -0.0596354 74.6074 C 0.0 **** 0.0
46442 C 35.2104 -1.43186 74.6784 C 0.0 **** 0.0
46443 C 32.4051 1.06815 74.2047 C 0.0 **** 0.0
46444 C 31.1118 1.36081 74.9609 C 0.0 **** 0.0
46445 C 30.3777 0.148408 75.4188 C 0.0 **** 0.0
46446 C 31.0876 -0.934076 75.822 C 0.0 **** 0.0
46447 C 30.4269 -2.15807 76.4411 C 0.0 **** 0.0
46448 C 28.89 -2.04217 76.439 C 0.0 **** 0.0
46449 C 28.4423 -0.622786 76.6813 C 0.0 **** 0.0
46450 C 28.8949 0.249843 75.5355 C 0.0 **** 0.0
46451 C 34.115 -0.232308 79.8358 C 0.0 **** 0.0
46452 C 33.2369 -0.881246 78.744 C 0.0 **** 0.0
46453 C 35.4461 0.163935 82.5326 C 0.0 **** 0.0
46454 C 34.5244 1.29041 82.0068 C 0.0 **** 0.0
46455 S 33.1264 0.595641 81.1064 S 0.0 **** 0.0
46456 C 33.865 2.08071 83.1075 C 0.0 **** 0.0
46457 C 34.8648 2.51279 84.1945 C 0.0 **** 0.0
46458 C 36.3057 2.25056 83.8053 C 0.0 **** 0.0
46459 C 36.5376 0.731088 83.4858 C 0.0 **** 0.0
46460 C 37.4156 2.89496 84.6954 C 0.0 **** 0.0
46461 C 36.8983 3.91562 85.7569 C 0.0 **** 0.0
46462 C 35.3675 4.10685 85.9694 C 0.0 **** 0.0
46463 C 34.6209 3.88753 84.7225 C 0.0 **** 0.0
46464 C 35.0145 5.44846 86.7212 C 0.0 **** 0.0
46465 C 36.1043 5.80597 87.7443 C 0.0 **** 0.0
46466 C 36.9789 4.60374 88.1033 C 0.0 **** 0.0
46467 C 37.8336 4.23049 86.9089 C 0.0 **** 0.0
46468 C 37.9881 0.50109 83.0566 C 0.0 **** 0.0
46469 C 38.1596 -1.00964 82.7106 C 0.0 **** 0.0
46470 C 38.3986 1.81702 85.248 C 0.0 **** 0.0
46471 C 39.0596 1.08792 84.0506 C 0.0 **** 0.0
46472 C 38.7845 3.05897 87.3284 C 0.0 **** 0.0
46473 C 39.4888 2.51009 86.0887 C 0.0 **** 0.0
46474 C 37.7974 4.92768 89.3476 C 0.0 **** 0.0
46475 C 38.9307 3.87105 89.6307 C 0.0 **** 0.0
46476 C 39.7642 3.57581 88.3684 C 0.0 **** 0.0
46477 O 36.8746 6.90287 87.2805 O 0.0 **** 0.0
46478 C 36.115 8.08385 87.4207 C 0.0 **** 0.0
46479 C 34.6803 7.95846 86.8029 C 0.0 **** 0.0
46480 C 34.4369 6.65475 85.9515 C 0.0 **** 0.0
46481 C 34.2579 9.2048 86.0612 C 0.0 **** 0.0
46482 C 34.7256 10.5153 86.6934 C 0.0 **** 0.0
46483 C 36.2598 10.6076 87.1345 C 0.0 **** 0.0
46484 C 37.012 9.27317 86.9493 C 0.0 **** 0.0
46485 C 38.3139 9.18953 87.7802 C 0.0 **** 0.0
46486 C 38.7277 10.5197 88.2918 C 0.0 **** 0.0
46487 C 37.6035 11.2424 89.0411 C 0.0 **** 0.0
46488 N 36.2626 11.0173 88.5335 N 0.0 **** 0.0
46489 C 40.2922 0.186525 84.403 C 0.0 **** 0.0
46490 C 41.2833 0.827847 85.3586 C 0.0 **** 0.0
46491 C 40.6142 1.51776 86.5186 C 0.0 **** 0.0
46492 O 42.1254 -0.148875 85.8355 O 0.0 **** 0.0
46493 C 42.8893 -0.741696 84.7858 C 0.0 **** 0.0
46494 C 42.1339 -0.985347 83.4373 C 0.0 **** 0.0
46495 O 41.0134 -0.106142 83.2071 O 0.0 **** 0.0
46496 C 41.6924 -2.46925 83.1802 C 0.0 **** 0.0
46497 C 42.7854 -3.49812 83.4466 C 0.0 **** 0.0
46498 C 43.9362 -3.03884 84.3634 C 0.0 **** 0.0
46499 C 43.4907 -2.0232 85.3732 C 0.0 **** 0.0
46500 C 40.8493 2.52871 88.7719 C 0.0 **** 0.0
46501 C 41.6257 2.16099 87.4833 C 0.0 **** 0.0
46502 C 39.7557 4.26417 90.8336 C 0.0 **** 0.0
46503 C 40.9554 3.36343 91.1492 C 0.0 **** 0.0
46504 C 41.7569 3.06326 89.8732 C 0.0 **** 0.0
46505 C 38.8897 4.40046 92.1015 C 0.0 **** 0.0
46506 C 37.6942 5.37279 91.8311 C 0.0 **** 0.0
46507 C 36.8953 5.01367 90.5776 C 0.0 **** 0.0
46508 O 41.7704 3.93433 92.1619 O 0.0 **** 0.0
46509 C 41.0166 4.10482 93.3378 C 0.0 **** 0.0
46510 C 39.8077 5.04673 93.1261 C 0.0 **** 0.0
46511 C 36.8293 5.72898 93.0457 C 0.0 **** 0.0
46512 C 37.7707 6.09588 94.2416 C 0.0 **** 0.0
46513 C 39.0335 5.2649 94.4007 C 0.0 **** 0.0
46514 C 37.0977 6.02038 95.6456 C 0.0 **** 0.0
46515 C 35.6552 6.34591 95.5402 C 0.0 **** 0.0
46516 C 34.9858 5.23683 94.6832 C 0.0 **** 0.0
46517 C 35.8341 4.68433 93.5042 C 0.0 **** 0.0
46518 C 40.0167 5.80576 95.4366 C 0.0 **** 0.0
46519 C 41.1537 4.81912 95.6984 C 0.0 **** 0.0
46520 C 41.9402 4.60493 94.4439 C 0.0 **** 0.0
46521 C 37.9852 6.89107 96.6392 C 0.0 **** 0.0
46522 C 39.3352 6.07535 96.7918 C 0.0 **** 0.0
46523 C 28.2657 -3.0788 77.448 C 0.0 **** 0.0
46524 C 28.4263 -2.71336 78.9237 C 0.0 **** 0.0
46525 C 26.8036 -3.33321 77.1968 C 0.0 **** 0.0
46526 O 33.0438 6.4411 85.7274 O 0.0 **** 0.0
46527 C 43.074 3.57807 94.6677 C 0.0 **** 0.0
46528 C 43.993 3.90313 95.8367 C 0.0 **** 0.0
46529 C 43.5681 5.15832 96.5806 C 0.0 **** 0.0
46530 C 42.069 5.15055 96.9193 C 0.0 **** 0.0
46531 C 41.7745 6.51666 97.5367 C 0.0 **** 0.0
46532 C 42.4572 6.74211 98.8813 C 0.0 **** 0.0
46533 C 43.9832 6.39497 98.8172 C 0.0 **** 0.0
46534 C 44.433 5.26925 97.8138 C 0.0 **** 0.0
46535 C 44.8234 7.6485 98.7819 C 0.0 **** 0.0
46536 C 44.5984 8.51761 100.015 C 0.0 **** 0.0
46537 C 43.1243 8.53434 100.498 C 0.0 **** 0.0
46538 C 42.192 8.18554 99.3451 C 0.0 **** 0.0
46539 C 40.7158 8.45047 99.5738 C 0.0 **** 0.0
46540 C 39.7063 7.47233 98.8721 C 0.0 **** 0.0
46541 C 40.3197 7.02386 97.477 C 0.0 **** 0.0
46542 C 40.3168 9.25573 100.758 C 0.0 **** 0.0
46543 C 41.4022 10.3333 100.904 C 0.0 **** 0.0
46544 C 42.842 9.90584 101.094 C 0.0 **** 0.0
46545 C 37.4201 7.26214 97.9903 C 0.0 **** 0.0
46546 C 38.4127 8.21618 98.629 C 0.0 **** 0.0
46547 C 38.9922 9.95838 100.4 C 0.0 **** 0.0
46548 C 37.8922 9.07349 99.7552 C 0.0 **** 0.0
46549 C 36.6616 9.93774 99.2284 C 0.0 **** 0.0
46550 C 36.538 11.2546 99.9591 C 0.0 **** 0.0
46551 C 36.9339 11.2159 101.407 C 0.0 **** 0.0
46552 C 38.3126 10.6805 101.577 C 0.0 **** 0.0
46553 O 38.9021 10.8672 102.616 O 0.0 **** 0.0
46554 H 35.9041 -11.2113 71.5655 H 0.0 **** 0.0
46555 H 35.4705 -11.2348 73.3264 H 0.0 **** 0.0
46556 H 34.0538 -9.81466 71.4087 H 0.0 **** 0.0
46557 H 34.0213 -9.42536 73.1631 H 0.0 **** 0.0
46558 H 35.7973 -8.15784 71.0782 H 0.0 **** 0.0
46559 H 37.062 -7.11647 72.7097 H 0.0 **** 0.0
46560 H 36.423 -9.39211 74.6785 H 0.0 **** 0.0
46561 H 38.0041 -8.80439 74.0596 H 0.0 **** 0.0
46562 H 34.6735 -7.44323 74.4938 H 0.0 **** 0.0
46563 H 34.1166 -5.24923 74.1421 H 0.0 **** 0.0
46564 H 35.5388 -5.50815 71.5223 H 0.0 **** 0.0
46565 H 33.8233 -4.96004 71.8585 H 0.0 **** 0.0
46566 H 33.7398 -7.2804 70.7291 H 0.0 **** 0.0
46567 H 33.2223 -7.37772 72.4473 H 0.0 **** 0.0
46568 H 37.1758 -3.34325 74.8305 H 0.0 **** 0.0
46569 H 38.0243 -5.55935 74.881 H 0.0 **** 0.0
46570 H 35.5661 -6.49533 76.3884 H 0.0 **** 0.0
46571 H 36.8145 -7.48286 75.916 H 0.0 **** 0.0
46572 H 34.6299 -4.49444 76.1092 H 0.0 **** 0.0
46573 H 38.9805 -4.3331 80.6882 H 0.0 **** 0.0
46574 H 37.8999 -5.6495 79.9988 H 0.0 **** 0.0
46575 H 40.1212 -5.96707 79.0911 H 0.0 **** 0.0
46576 H 40.1074 -4.20863 78.5141 H 0.0 **** 0.0
46577 H 39.4999 -5.89042 76.6351 H 0.0 **** 0.0
46578 H 32.9122 -2.88935 76.5415 H 0.0 **** 0.0
46579 H 35.2008 0.519723 75.3868 H 0.0 **** 0.0
46580 H 34.8833 0.357738 73.5745 H 0.0 **** 0.0
46581 H 36.1717 -1.62223 74.1525 H 0.0 **** 0.0
46582 H 32.9984 2.01021 74.175 H 0.0 **** 0.0
46583 H 32.156 0.674539 73.155 H 0.0 **** 0.0
46584 H 30.4747 1.92593 74.2723 H 0.0 **** 0.0
46585 H 31.2926 2.00499 75.8496 H 0.0 **** 0.0
46586 H 30.7544 -3.05149 75.8881 H 0.0 **** 0.0
46587 H 30.8 -2.24198 77.4981 H 0.0 **** 0.0
46588 H 28.5801 -2.39202 75.4024 H 0.0 **** 0.0
46589 H 28.8221 -0.288426 77.6402 H 0.0 **** 0.0
46590 H 27.3393 -0.508135 76.8209 H 0.0 **** 0.0
46591 H 28.6131 1.30736 75.7519 H 0.0 **** 0.0
46592 H 28.4443 -0.154059 74.6102 H 0.0 **** 0.0
46593 H 32.5352 -0.130891 78.3893 H 0.0 **** 0.0
46594 H 33.4914 3.02037 82.6427 H 0.0 **** 0.0
46595 H 33.5259 4.03003 84.8661 H 0.0 **** 0.0
46596 H 39.2127 -1.37275 82.5327 H 0.0 **** 0.0
46597 H 35.9715 8.192 88.5227 H 0.0 **** 0.0
46598 H 33.9514 7.87512 87.6338 H 0.0 **** 0.0
46599 H 34.9525 6.76064 84.9349 H 0.0 **** 0.0
46600 H 34.707 9.09884 85.0186 H 0.0 **** 0.0
46601 H 33.1139 9.22353 85.9551 H 0.0 **** 0.0
46602 H 34.0747 10.6294 87.6269 H 0.0 **** 0.0
46603 H 34.523 11.4134 86.0319 H 0.0 **** 0.0
46604 H 36.7202 11.4039 86.5334 H 0.0 **** 0.0
46605 H 37.2327 9.13997 85.8604 H 0.0 **** 0.0
46606 H 38.2873 8.43993 88.6033 H 0.0 **** 0.0
46607 H 39.1172 8.8062 87.1149 H 0.0 **** 0.0
46608 H 39.0984 11.1144 87.453 H 0.0 **** 0.0
46609 H 39.579 10.3792 88.9901 H 0.0 **** 0.0
46610 H 37.8299 12.3521 88.9468 H 0.0 **** 0.0
46611 H 37.6246 10.9404 90.1365 H 0.0 **** 0.0
46612 H 35.7159 11.8886 88.6885 H 0.0 **** 0.0
46613 H 43.6973 -0.0532847 84.5528 H 0.0 **** 0.0
46614 H 42.8631 -0.77031 82.6448 H 0.0 **** 0.0
46615 H 40.8205 -2.67804 83.881 H 0.0 **** 0.0
46616 H 41.277 -2.58464 82.1616 H 0.0 **** 0.0
46617 H 43.1511 -3.86122 82.4564 H 0.0 **** 0.0
46618 H 42.3725 -4.39561 83.9942 H 0.0 **** 0.0
46619 H 44.7375 -2.59944 83.7326 H 0.0 **** 0.0
46620 H 44.3704 -3.91809 84.8879 H 0.0 **** 0.0
46621 H 44.3444 -1.78427 86.0747 H 0.0 **** 0.0
46622 H 42.7176 -2.52765 86.0181 H 0.0 **** 0.0
46623 H 42.5192 1.52597 87.7333 H 0.0 **** 0.0
46624 H 42.5248 2.28746 90.1032 H 0.0 **** 0.0
46625 H 36.1544 5.81255 90.3961 H 0.0 **** 0.0
46626 H 36.1997 6.61017 92.7757 H 0.0 **** 0.0
46627 H 38.0567 7.14751 94.1047 H 0.0 **** 0.0
46628 H 37.1384 4.97891 96.0639 H 0.0 **** 0.0
46629 H 35.5608 7.32885 95.0431 H 0.0 **** 0.0
46630 H 35.1741 6.37355 96.5022 H 0.0 **** 0.0
46631 H 34.0713 5.60865 94.2459 H 0.0 **** 0.0
46632 H 34.7357 4.35282 95.3503 H 0.0 **** 0.0
46633 H 35.1278 4.28876 92.7567 H 0.0 **** 0.0
46634 H 36.4147 3.77954 93.8028 H 0.0 **** 0.0
46635 H 28.7448 -4.07105 77.2886 H 0.0 **** 0.0
46636 H 28.0335 -3.501 79.544 H 0.0 **** 0.0
46637 H 27.9696 -1.69241 79.114 H 0.0 **** 0.0
46638 H 29.4346 -2.56839 79.2307 H 0.0 **** 0.0
46639 H 26.5491 -3.45545 76.0809 H 0.0 **** 0.0
46640 H 26.1629 -2.44258 77.5024 H 0.0 **** 0.0
46641 H 26.5014 -4.2807 77.6727 H 0.0 **** 0.0
46642 H 32.7906 6.8587 84.8427 H 0.0 **** 0.0
46643 H 42.7399 2.53107 94.8179 H 0.0 **** 0.0
46644 H 45.0038 4.04482 95.4541 H 0.0 **** 0.0
46645 H 45.5176 5.37978 97.5596 H 0.0 **** 0.0
46646 H 45.9169 7.40203 98.6541 H 0.0 **** 0.0
46647 H 45.3156 8.26492 100.8 H 0.0 **** 0.0
46648 H 41.1759 11.1562 101.623 H 0.0 **** 0.0
46649 H 43.063 9.7861 102.151 H 0.0 **** 0.0
46650 H 36.3839 7.71494 97.9066 H 0.0 **** 0.0
46651 H 36.8203 10.2246 98.1381 H 0.0 **** 0.0
46652 H 35.6602 9.44308 99.2881 H 0.0 **** 0.0
46653 H 35.5024 11.5993 99.9268 H 0.0 **** 0.0
46654 H 37.121 12.0465 99.4714 H 0.0 **** 0.0
46655 H 36.2381 10.5789 101.982 H 0.0 **** 0.0
46656 H 36.9001 12.2507 101.863 H 0.0 **** 0.0
46657 C 7.55847 86.1467 86.1623 C 0.0 **** 0.0
46658 C 8.41501 87.0275 85.1949 C 0.0 **** 0.0
46659 C 7.59141 88.1525 84.6158 C 0.0 **** 0.0
46660 C 6.26035 87.5778 84.0474 C 0.0 **** 0.0
46661 C 5.58624 86.8137 85.2241 C 0.0 **** 0.0
46662 O 6.38404 85.72 85.5761 O 0.0 **** 0.0
46663 C 6.41494 86.6923 82.7412 C 0.0 **** 0.0
46664 C 7.39106 87.3939 81.7138 C 0.0 **** 0.0
46665 C 7.73709 88.8386 82.1621 C 0.0 **** 0.0
46666 C 8.44386 88.8539 83.5322 C 0.0 **** 0.0
46667 O 6.9547 87.4555 80.3821 O 0.0 **** 0.0
46668 C 6.36303 86.2825 79.9646 C 0.0 **** 0.0
46669 C 5.01339 86.1041 80.6151 C 0.0 **** 0.0
46670 C 5.03873 86.3339 82.1535 C 0.0 **** 0.0
46671 C 4.36132 84.7726 80.2854 C 0.0 **** 0.0
46672 C 5.18358 83.6142 80.11 C 0.0 **** 0.0
46673 C 6.51864 83.8765 79.3775 C 0.0 **** 0.0
46674 C 7.27515 84.9868 80.0685 C 0.0 **** 0.0
46675 C 7.35835 82.5548 79.348 C 0.0 **** 0.0
46676 C 6.60129 81.4314 78.7471 C 0.0 **** 0.0
46677 C 5.33806 81.2172 79.5272 C 0.0 **** 0.0
46678 C 4.45695 82.4143 79.4331 C 0.0 **** 0.0
46679 C 3.13921 82.2066 80.15 C 0.0 **** 0.0
46680 C 2.23803 83.396 80.1207 C 0.0 **** 0.0
46681 C 2.99532 84.6543 80.4797 C 0.0 **** 0.0
46682 O 4.61052 80.0193 79.3327 O 0.0 **** 0.0
46683 C 5.15771 79.3106 78.2484 C 0.0 **** 0.0
46684 C 6.60836 78.924 78.4815 C 0.0 **** 0.0
46685 C 7.41899 80.1563 78.8745 C 0.0 **** 0.0
46686 C 8.64066 85.0653 79.3896 C 0.0 **** 0.0
46687 C 9.48594 83.8584 79.5311 C 0.0 **** 0.0
46688 C 8.74965 82.7765 78.7233 C 0.0 **** 0.0
46689 C 10.8731 84.1362 79.0448 C 0.0 **** 0.0
46690 C 11.1488 85.0045 78.0853 C 0.0 **** 0.0
46691 C 10.1488 85.9685 77.6337 C 0.0 **** 0.0
46692 C 8.94455 86.0019 78.5083 C 0.0 **** 0.0
46693 C 12.5554 85.238 77.6582 C 0.0 **** 0.0
46694 C 13.1988 83.8836 77.4374 C 0.0 **** 0.0
46695 C 13.0565 83.0655 78.7001 C 0.0 **** 0.0
46696 C 12.0077 83.2257 79.5059 C 0.0 **** 0.0
46697 C 11.887 82.5154 80.8374 C 0.0 **** 0.0
46698 C 13.1558 81.6895 81.2244 C 0.0 **** 0.0
46699 C 13.6312 80.9129 79.9604 C 0.0 **** 0.0
46700 C 14.0518 81.9125 78.8873 C 0.0 **** 0.0
46701 C 8.6727 80.327 78.0484 C 0.0 **** 0.0
46702 C 9.51542 81.4512 78.6099 C 0.0 **** 0.0
46703 C 7.13155 78.3045 77.141 C 0.0 **** 0.0
46704 C 8.58647 77.7874 77.1226 C 0.0 **** 0.0
46705 S 9.66743 78.8212 78.1301 S 0.0 **** 0.0
46706 C 9.00894 77.6626 75.6398 C 0.0 **** 0.0
46707 C 8.13673 76.5427 75.0352 C 0.0 **** 0.0
46708 C 6.62836 76.8448 75.189 C 0.0 **** 0.0
46709 C 6.22679 77.1741 76.6176 C 0.0 **** 0.0
46710 C 5.82398 75.674 74.6336 C 0.0 **** 0.0
46711 C 6.13704 75.5615 73.1692 C 0.0 **** 0.0
46712 C 7.62131 75.154 72.9808 C 0.0 **** 0.0
46713 C 8.51586 76.2343 73.5971 C 0.0 **** 0.0
46714 C 8.04468 74.9347 71.5066 C 0.0 **** 0.0
46715 C 7.00774 74.3596 70.5529 C 0.0 **** 0.0
46716 C 5.55963 74.8747 70.7937 C 0.0 **** 0.0
46717 C 5.21592 74.7296 72.3215 C 0.0 **** 0.0
46718 C 4.72212 77.4807 76.6578 C 0.0 **** 0.0
46719 C 4.31085 78.0866 77.9901 C 0.0 **** 0.0
46720 C 4.27184 75.6891 74.9409 C 0.0 **** 0.0
46721 C 3.8985 76.2716 76.3198 C 0.0 **** 0.0
46722 C 3.72162 74.8908 72.675 C 0.0 **** 0.0
46723 C 3.41244 75.9958 73.7423 C 0.0 **** 0.0
46724 C 4.46665 74.3484 69.8177 C 0.0 **** 0.0
46725 C 3.08518 73.9349 70.4195 C 0.0 **** 0.0
46726 C 2.74233 74.9459 71.4666 C 0.0 **** 0.0
46727 O 7.52613 74.6416 69.2838 O 0.0 **** 0.0
46728 C 8.46003 73.6448 68.947 C 0.0 **** 0.0
46729 C 9.29996 73.1518 70.1643 C 0.0 **** 0.0
46730 C 9.41234 74.206 71.2861 C 0.0 **** 0.0
46731 C 10.7353 72.6461 69.8229 C 0.0 **** 0.0
46732 C 10.7395 71.9994 68.4924 C 0.0 **** 0.0
46733 C 10.3714 73.0037 67.4131 C 0.0 **** 0.0
46734 C 9.35452 74.1402 67.8375 C 0.0 **** 0.0
46735 C 8.49668 74.64 66.6515 C 0.0 **** 0.0
46736 C 9.35505 74.6215 65.4028 C 0.0 **** 0.0
46737 C 9.6857 73.1527 65.0117 C 0.0 **** 0.0
46738 N 9.92257 72.272 66.2005 N 0.0 **** 0.0
46739 C 2.40486 76.7004 76.4139 C 0.0 **** 0.0
46740 C 1.51283 76.8175 75.1768 C 0.0 **** 0.0
46741 C 1.93921 75.8724 74.1016 C 0.0 **** 0.0
46742 O 0.182267 76.4778 75.459 O 0.0 **** 0.0
46743 C -0.34174 77.065 76.6381 C 0.0 **** 0.0
46744 C 0.657261 76.9951 77.8367 C 0.0 **** 0.0
46745 O 1.77341 76.1745 77.5267 O 0.0 **** 0.0
46746 C -0.0774721 76.4167 79.1187 C 0.0 **** 0.0
46747 C -1.35995 77.1806 79.3096 C 0.0 **** 0.0
46748 C -2.37798 76.7597 78.2369 C 0.0 **** 0.0
46749 C -1.72243 76.384 76.8846 C 0.0 **** 0.0
46750 C 1.27869 74.8539 71.9635 C 0.0 **** 0.0
46751 C 1.03654 76.0487 72.858 C 0.0 **** 0.0
46752 C 2.03946 73.8997 69.2654 C 0.0 **** 0.0
46753 C 0.630878 73.7357 69.7892 C 0.0 **** 0.0
46754 C 0.301109 74.8538 70.7559 C 0.0 **** 0.0
46755 C 2.37514 72.7179 68.3738 C 0.0 **** 0.0
46756 C 3.71087 73.0454 67.6881 C 0.0 **** 0.0
46757 C 4.9117 73.4235 68.6496 C 0.0 **** 0.0
46758 O -0.285659 73.8087 68.7058 O 0.0 **** 0.0
46759 C -0.142402 72.595 67.9897 C 0.0 **** 0.0
46760 C 1.24314 72.6163 67.3513 C 0.0 **** 0.0
46761 C 4.10144 72.1732 66.4974 C 0.0 **** 0.0
46762 C 2.88189 71.5343 65.7105 C 0.0 **** 0.0
46763 C 1.52203 71.3998 66.4806 C 0.0 **** 0.0
46764 C 3.19136 70.1607 65.0841 C 0.0 **** 0.0
46765 C 4.62971 70.2241 64.5218 C 0.0 **** 0.0
46766 C 5.6796 70.2804 65.7004 C 0.0 **** 0.0
46767 C 5.18875 71.1189 66.8912 C 0.0 **** 0.0
46768 C 0.442871 71.2164 65.4356 C 0.0 **** 0.0
46769 C -0.959246 71.2098 66.0403 C 0.0 **** 0.0
46770 C -1.23608 72.4589 66.9269 C 0.0 **** 0.0
46771 C 2.08849 69.7979 64.0167 C 0.0 **** 0.0
46772 C 0.713375 69.8917 64.6696 C 0.0 **** 0.0
46773 C 12.8982 80.7684 82.4595 C 0.0 **** 0.0
46774 C 11.9263 79.5635 82.1977 C 0.0 **** 0.0
46775 C 14.1936 80.2401 83.0092 C 0.0 **** 0.0
46776 O 9.93495 73.617 72.4259 O 0.0 **** 0.0
46777 C -2.6678 72.4204 67.4639 C 0.0 **** 0.0
46778 C -3.64508 72.354 66.2905 C 0.0 **** 0.0
46779 C -3.41754 71.0349 65.4837 C 0.0 **** 0.0
46780 C -1.98229 71.016 64.9195 C 0.0 **** 0.0
46781 C -1.72484 69.7162 64.1464 C 0.0 **** 0.0
46782 C -2.75779 69.5357 63.0101 C 0.0 **** 0.0
46783 C -4.16891 69.5646 63.5751 C 0.0 **** 0.0
46784 C -4.44671 70.8584 64.324 C 0.0 **** 0.0
46785 C -5.18161 69.3839 62.4474 C 0.0 **** 0.0
46786 C -4.94989 68.0817 61.7842 C 0.0 **** 0.0
46787 C -3.55331 67.9566 61.2331 C 0.0 **** 0.0
46788 C -2.51147 68.1866 62.318 C 0.0 **** 0.0
46789 C -1.10271 67.936 61.8558 C 0.0 **** 0.0
46790 C -0.0747942 68.2483 62.9459 C 0.0 **** 0.0
46791 C -0.311281 69.6519 63.5756 C 0.0 **** 0.0
46792 C -1.00721 66.4819 61.4373 C 0.0 **** 0.0
46793 C -1.99045 66.19 60.3088 C 0.0 **** 0.0
46794 C -3.45512 66.5348 60.6957 C 0.0 **** 0.0
46795 C 2.37213 68.4148 63.4735 C 0.0 **** 0.0
46796 C 1.36851 68.0255 62.4322 C 0.0 **** 0.0
46797 C 0.446957 66.0891 60.9899 C 0.0 **** 0.0
46798 C 1.54863 66.6386 61.9008 C 0.0 **** 0.0
46799 C 2.95479 66.4767 61.2379 C 0.0 **** 0.0
46800 C 3.03083 65.3794 60.1864 C 0.0 **** 0.0
46801 C 2.07579 64.1578 60.5332 C 0.0 **** 0.0
46802 C 0.635312 64.5976 60.7767 C 0.0 **** 0.0
46803 O -0.250893 63.7852 60.8926 O 0.0 **** 0.0
46804 H 7.37208 86.6785 87.137 H 0.0 **** 0.0
46805 H 8.11949 85.2018 86.4218 H 0.0 **** 0.0
46806 H 9.22631 87.4546 85.7707 H 0.0 **** 0.0
46807 H 8.84351 86.4214 84.3866 H 0.0 **** 0.0
46808 H 7.35625 88.889 85.426 H 0.0 **** 0.0
46809 H 5.54007 88.4355 83.8419 H 0.0 **** 0.0
46810 H 4.60044 86.4277 84.8583 H 0.0 **** 0.0
46811 H 5.39379 87.5235 86.0868 H 0.0 **** 0.0
46812 H 6.89645 85.7151 83.0325 H 0.0 **** 0.0
46813 H 8.37372 86.8499 81.741 H 0.0 **** 0.0
46814 H 6.77781 89.4283 82.1962 H 0.0 **** 0.0
46815 H 8.38311 89.2879 81.4017 H 0.0 **** 0.0
46816 H 8.62609 89.9042 83.8264 H 0.0 **** 0.0
46817 H 9.45029 88.4389 83.3806 H 0.0 **** 0.0
46818 H 6.1158 86.4568 78.9052 H 0.0 **** 0.0
46819 H 4.36936 86.9313 80.2516 H 0.0 **** 0.0
46820 H 4.69834 85.4583 82.718 H 0.0 **** 0.0
46821 H 4.40183 87.223 82.3597 H 0.0 **** 0.0
46822 H 7.47752 84.7429 81.097 H 0.0 **** 0.0
46823 H 2.58001 81.3888 79.6762 H 0.0 **** 0.0
46824 H 3.30868 81.8975 81.2095 H 0.0 **** 0.0
46825 H 1.36315 83.2206 80.8309 H 0.0 **** 0.0
46826 H 1.86912 83.5293 79.125 H 0.0 **** 0.0
46827 H 2.41772 85.5219 80.7943 H 0.0 **** 0.0
46828 H 9.48381 83.5198 80.6001 H 0.0 **** 0.0
46829 H 9.82829 85.5877 76.6445 H 0.0 **** 0.0
46830 H 10.5728 87.0097 77.599 H 0.0 **** 0.0
46831 H 8.26949 86.8289 78.2996 H 0.0 **** 0.0
46832 H 12.5876 85.7728 76.6866 H 0.0 **** 0.0
46833 H 13.0955 85.7834 78.4256 H 0.0 **** 0.0
46834 H 14.3056 84.0265 77.204 H 0.0 **** 0.0
46835 H 12.6269 83.3761 76.5992 H 0.0 **** 0.0
46836 H 11.7755 83.2903 81.7052 H 0.0 **** 0.0
46837 H 11.0169 81.818 80.8189 H 0.0 **** 0.0
46838 H 13.9576 82.4631 81.4866 H 0.0 **** 0.0
46839 H 12.8819 80.1898 79.6264 H 0.0 **** 0.0
46840 H 14.5086 80.3258 80.2537 H 0.0 **** 0.0
46841 H 14.1645 81.3196 77.9572 H 0.0 **** 0.0
46842 H 15.0133 82.3709 79.1096 H 0.0 **** 0.0
46843 H 10.4104 81.6546 78.0385 H 0.0 **** 0.0
46844 H 10.0924 77.4171 75.5513 H 0.0 **** 0.0
46845 H 9.54916 75.863 73.5908 H 0.0 **** 0.0
46846 H 3.31532 78.4877 77.8814 H 0.0 **** 0.0
46847 H 7.84679 72.7693 68.5781 H 0.0 **** 0.0
46848 H 8.75647 72.3534 70.6409 H 0.0 **** 0.0
46849 H 10.1094 75.0007 70.9148 H 0.0 **** 0.0
46850 H 11.4948 73.4384 69.813 H 0.0 **** 0.0
46851 H 10.9992 71.8525 70.567 H 0.0 **** 0.0
46852 H 10.0624 71.1345 68.4776 H 0.0 **** 0.0
46853 H 11.7185 71.5638 68.3118 H 0.0 **** 0.0
46854 H 11.318 73.5066 67.1469 H 0.0 **** 0.0
46855 H 10.0047 75.0444 68.1604 H 0.0 **** 0.0
46856 H 7.60731 74.0127 66.4759 H 0.0 **** 0.0
46857 H 8.10147 75.6534 66.9 H 0.0 **** 0.0
46858 H 10.2671 75.223 65.5375 H 0.0 **** 0.0
46859 H 8.77225 75.0812 64.5511 H 0.0 **** 0.0
46860 H 10.6184 73.172 64.4037 H 0.0 **** 0.0
46861 H 8.87511 72.7647 64.3637 H 0.0 **** 0.0
46862 H 9.00354 71.7924 66.4394 H 0.0 **** 0.0
46863 H -0.535156 78.1562 76.4416 H 0.0 **** 0.0
46864 H 0.989534 77.9887 78.0885 H 0.0 **** 0.0
46865 H -0.290741 75.3598 78.9692 H 0.0 **** 0.0
46866 H 0.507403 76.4875 80.0375 H 0.0 **** 0.0
46867 H -1.19609 78.2514 79.1961 H 0.0 **** 0.0
46868 H -1.79668 76.9882 80.3227 H 0.0 **** 0.0
46869 H -3.09911 77.6122 78.0584 H 0.0 **** 0.0
46870 H -2.9747 75.8809 78.5382 H 0.0 **** 0.0
46871 H -2.46518 76.6883 76.0585 H 0.0 **** 0.0
46872 H -1.504 75.2854 76.8929 H 0.0 **** 0.0
46873 H -0.0366651 76.1973 73.085 H 0.0 **** 0.0
46874 H -0.759751 74.7402 71.0907 H 0.0 **** 0.0
46875 H 5.66498 73.966 68.0287 H 0.0 **** 0.0
46876 H 4.63598 72.8728 65.7788 H 0.0 **** 0.0
46877 H 2.69691 72.2313 64.797 H 0.0 **** 0.0
46878 H 3.17525 69.3543 65.84 H 0.0 **** 0.0
46879 H 4.75828 71.1533 63.9197 H 0.0 **** 0.0
46880 H 4.97711 69.3733 63.8907 H 0.0 **** 0.0
46881 H 6.59179 70.6889 65.2593 H 0.0 **** 0.0
46882 H 5.9735 69.265 66.044 H 0.0 **** 0.0
46883 H 6.09513 71.5805 67.2727 H 0.0 **** 0.0
46884 H 4.81465 70.4348 67.6691 H 0.0 **** 0.0
46885 H 12.3919 81.4153 83.2201 H 0.0 **** 0.0
46886 H 11.8239 78.9849 83.1913 H 0.0 **** 0.0
46887 H 12.4262 78.8617 81.4512 H 0.0 **** 0.0
46888 H 10.8789 79.922 81.8965 H 0.0 **** 0.0
46889 H 14.8394 81.1157 83.1173 H 0.0 **** 0.0
46890 H 14.7055 79.497 82.3504 H 0.0 **** 0.0
46891 H 14.0608 79.8225 84.0489 H 0.0 **** 0.0
46892 H 10.8879 73.9239 72.4964 H 0.0 **** 0.0
46893 H -2.87712 73.3236 68.1117 H 0.0 **** 0.0
46894 H -4.6738 72.4329 66.7098 H 0.0 **** 0.0
46895 H -5.51085 70.8827 64.6879 H 0.0 **** 0.0
46896 H -6.23902 69.5039 62.7389 H 0.0 **** 0.0
46897 H -5.72639 67.945 60.9968 H 0.0 **** 0.0
46898 H -1.91339 65.1265 59.9411 H 0.0 **** 0.0
46899 H -4.12618 66.33 59.8513 H 0.0 **** 0.0
46900 H 3.35183 68.3832 62.9811 H 0.0 **** 0.0
46901 H 3.25341 67.4617 60.8109 H 0.0 **** 0.0
46902 H 3.64516 66.2141 62.1027 H 0.0 **** 0.0
46903 H 4.06998 64.994 60.1464 H 0.0 **** 0.0
46904 H 2.70139 65.799 59.1811 H 0.0 **** 0.0
46905 H 2.44814 63.6595 61.454 H 0.0 **** 0.0
46906 H 2.0896 63.3675 59.7456 H 0.0 **** 0.0
46907 C -0.114508 57.5291 9.54251 C 0.0 **** 0.0
46908 C 1.11581 58.3221 9.01204 C 0.0 **** 0.0
46909 C 1.15406 58.2977 7.46627 C 0.0 **** 0.0
46910 C 1.27822 56.7711 7.01747 C 0.0 **** 0.0
46911 C 0.525288 55.8003 8.03768 C 0.0 **** 0.0
46912 O -0.564204 56.5272 8.62781 O 0.0 **** 0.0
46913 C 2.78772 56.2977 6.81609 C 0.0 **** 0.0
46914 C 3.68611 57.368 6.02458 C 0.0 **** 0.0
46915 C 2.92172 58.6619 5.69216 C 0.0 **** 0.0
46916 C 2.26118 59.2487 6.93811 C 0.0 **** 0.0
46917 O 4.20205 56.8614 4.78691 O 0.0 **** 0.0
46918 C 5.07276 55.7789 5.05471 C 0.0 **** 0.0
46919 C 4.22927 54.5094 5.38312 C 0.0 **** 0.0
46920 C 2.892 54.8739 6.16046 C 0.0 **** 0.0
46921 C 5.04658 53.4051 6.07563 C 0.0 **** 0.0
46922 C 6.32007 53.6753 6.75575 C 0.0 **** 0.0
46923 C 7.16995 54.8132 6.09154 C 0.0 **** 0.0
46924 C 6.30278 56.065 6.0119 C 0.0 **** 0.0
46925 C 8.35848 55.0757 7.09995 C 0.0 **** 0.0
46926 C 9.22667 53.8202 7.23136 C 0.0 **** 0.0
46927 C 8.36389 52.7061 7.87681 C 0.0 **** 0.0
46928 C 7.1265 52.3657 7.02287 C 0.0 **** 0.0
46929 C 6.21345 51.462 7.8351 C 0.0 **** 0.0
46930 C 5.03018 50.9998 6.99378 C 0.0 **** 0.0
46931 C 4.45661 52.1007 6.14205 C 0.0 **** 0.0
46932 O 9.04847 51.4749 8.20197 O 0.0 **** 0.0
46933 C 10.4114 51.5127 7.88746 C 0.0 **** 0.0
46934 C 11.1284 52.7671 8.54443 C 0.0 **** 0.0
46935 C 10.408 54.0387 8.12614 C 0.0 **** 0.0
46936 C 7.13475 57.2857 5.68831 C 0.0 **** 0.0
46937 C 8.21133 57.5531 6.73815 C 0.0 **** 0.0
46938 C 9.14586 56.3683 6.71208 C 0.0 **** 0.0
46939 C 8.86632 58.8942 6.64311 C 0.0 **** 0.0
46940 C 8.93849 59.5253 5.45194 C 0.0 **** 0.0
46941 C 8.13651 59.0246 4.22867 C 0.0 **** 0.0
46942 C 7.11401 57.9789 4.53173 C 0.0 **** 0.0
46943 C 9.80289 60.7287 5.29539 C 0.0 **** 0.0
46944 C 10.9505 60.7436 6.34522 C 0.0 **** 0.0
46945 C 10.5014 60.3656 7.72395 C 0.0 **** 0.0
46946 C 9.42528 59.5605 7.83074 C 0.0 **** 0.0
46947 C 8.84461 59.2326 9.20281 C 0.0 **** 0.0
46948 C 9.45694 59.9892 10.3623 C 0.0 **** 0.0
46949 C 10.9848 60.0018 10.183 C 0.0 **** 0.0
46950 C 11.3558 60.7774 8.92623 C 0.0 **** 0.0
46951 C 11.241 55.2525 7.71113 C 0.0 **** 0.0
46952 C 10.3592 56.4955 7.67149 C 0.0 **** 0.0
46953 C 12.5954 52.8094 8.24499 C 0.0 **** 0.0
46954 C 13.2743 53.9144 9.03488 C 0.0 **** 0.0
46955 S 12.4778 55.5654 9.01107 S 0.0 **** 0.0
46956 C 14.7683 53.9945 8.72546 C 0.0 **** 0.0
46957 C 15.4459 52.7231 9.14899 C 0.0 **** 0.0
46958 C 14.7378 51.4646 8.65091 C 0.0 **** 0.0
46959 C 13.2047 51.4989 8.78297 C 0.0 **** 0.0
46960 C 15.2903 50.3053 9.51189 C 0.0 **** 0.0
46961 C 16.8232 50.186 9.27656 C 0.0 **** 0.0
46962 C 17.5045 51.501 9.54665 C 0.0 **** 0.0
46963 C 16.8888 52.6753 8.76794 C 0.0 **** 0.0
46964 C 19.0439 51.4028 9.41395 C 0.0 **** 0.0
46965 C 19.6344 49.9979 9.55822 C 0.0 **** 0.0
46966 C 18.9175 49.054 10.5064 C 0.0 **** 0.0
46967 C 17.3842 49.0532 10.1778 C 0.0 **** 0.0
46968 C 12.6326 50.3277 7.99369 C 0.0 **** 0.0
46969 C 11.1238 50.1989 8.33692 C 0.0 **** 0.0
46970 C 14.5296 48.9676 9.24896 C 0.0 **** 0.0
46971 C 13.5005 49.0528 8.07527 C 0.0 **** 0.0
46972 C 16.498 47.7206 10.184 C 0.0 **** 0.0
46973 C 15.3933 47.7426 9.11558 C 0.0 **** 0.0
46974 C 19.516 47.6578 10.5199 C 0.0 **** 0.0
46975 C 18.5715 46.5131 10.8977 C 0.0 **** 0.0
46976 C 17.3937 46.4981 9.93546 C 0.0 **** 0.0
46977 O 21.054 50.0135 9.70166 O 0.0 **** 0.0
46978 C 21.554 50.7431 10.8385 C 0.0 **** 0.0
46979 C 20.6532 51.9581 11.2536 C 0.0 **** 0.0
46980 C 19.9015 52.517 10.0622 C 0.0 **** 0.0
46981 C 21.3308 53.048 12.0715 C 0.0 **** 0.0
46982 C 22.5996 52.5643 12.7571 C 0.0 **** 0.0
46983 C 23.6243 52.1145 11.7199 C 0.0 **** 0.0
46984 C 23.0267 51.179 10.6062 C 0.0 **** 0.0
46985 C 23.9825 50.0161 10.2313 C 0.0 **** 0.0
46986 C 25.4113 50.6269 10.19 C 0.0 **** 0.0
46987 C 25.8699 51.2266 11.5106 C 0.0 **** 0.0
46988 N 24.7655 51.515 12.4241 N 0.0 **** 0.0
46989 C 12.8437 47.7164 7.72164 C 0.0 **** 0.0
46990 C 13.8217 46.4897 7.73135 C 0.0 **** 0.0
46991 C 14.5555 46.4705 9.07066 C 0.0 **** 0.0
46992 O 13.1434 45.3027 7.50386 O 0.0 **** 0.0
46993 C 12.5063 45.4316 6.215 C 0.0 **** 0.0
46994 C 11.4848 46.6033 6.22091 C 0.0 **** 0.0
46995 O 12.1398 47.8068 6.48525 O 0.0 **** 0.0
46996 C 10.3481 46.3353 7.2475 C 0.0 **** 0.0
46997 C 10.1595 44.8285 7.52691 C 0.0 **** 0.0
46998 C 10.4549 43.9415 6.30625 C 0.0 **** 0.0
46999 C 11.8953 44.0699 5.80966 C 0.0 **** 0.0
47000 C 16.5331 45.2293 10.1972 C 0.0 **** 0.0
47001 C 15.4153 45.2068 9.20355 C 0.0 **** 0.0
47002 C 19.3906 45.1869 10.7111 C 0.0 **** 0.0
47003 C 18.5711 43.9277 10.9644 C 0.0 **** 0.0
47004 C 17.3724 43.9718 10.0166 C 0.0 **** 0.0
47005 C 20.6367 45.1179 11.5818 C 0.0 **** 0.0
47006 C 21.4803 46.3591 11.3092 C 0.0 **** 0.0
47007 C 20.6759 47.6332 11.5126 C 0.0 **** 0.0
47008 O 19.3259 42.7808 10.548 O 0.0 **** 0.0
47009 C 20.5162 42.6906 11.2983 C 0.0 **** 0.0
47010 C 21.4253 43.9242 11.119 C 0.0 **** 0.0
47011 C 22.8638 46.3594 11.9634 C 0.0 **** 0.0
47012 C 23.5644 44.9856 11.808 C 0.0 **** 0.0
47013 C 22.6811 43.7743 11.9585 C 0.0 **** 0.0
47014 C 24.7885 44.8003 12.8143 C 0.0 **** 0.0
47015 C 25.4912 46.1306 13.1117 C 0.0 **** 0.0
47016 C 24.4406 47.1597 13.681 C 0.0 **** 0.0
47017 C 22.9408 46.9047 13.4003 C 0.0 **** 0.0
47018 C 23.4137 42.5287 11.6082 C 0.0 **** 0.0
47019 C 22.5901 41.2823 11.6459 C 0.0 **** 0.0
47020 C 21.268 41.4451 10.8329 C 0.0 **** 0.0
47021 C 25.6777 43.6764 12.2762 C 0.0 **** 0.0
47022 C 24.8244 42.3769 12.2911 C 0.0 **** 0.0
47023 C 8.96673 59.3009 11.7434 C 0.0 **** 0.0
47024 C 9.59595 57.9068 12.0443 C 0.0 **** 0.0
47025 C 9.17096 60.1992 12.9631 C 0.0 **** 0.0
47026 O 19.0951 53.5507 10.5507 O 0.0 **** 0.0
47027 C 20.4646 40.1735 10.9897 C 0.0 **** 0.0
47028 C 21.2636 39.0121 10.412 C 0.0 **** 0.0
47029 C 22.6547 38.7904 11.0563 C 0.0 **** 0.0
47030 C 23.3927 40.1237 11.0019 C 0.0 **** 0.0
47031 C 24.8372 39.9747 11.5194 C 0.0 **** 0.0
47032 C 25.5793 38.9175 10.6738 C 0.0 **** 0.0
47033 C 24.8678 37.5703 10.627 C 0.0 **** 0.0
47034 C 23.4137 37.7775 10.1748 C 0.0 **** 0.0
47035 C 25.5863 36.6555 9.68634 C 0.0 **** 0.0
47036 C 27.0441 36.4673 10.0999 C 0.0 **** 0.0
47037 C 27.803 37.7858 10.3212 C 0.0 **** 0.0
47038 C 27.0304 38.7489 11.2323 C 0.0 **** 0.0
47039 C 27.8028 40.0541 11.3186 C 0.0 **** 0.0
47040 C 26.9986 41.0966 12.1297 C 0.0 **** 0.0
47041 C 25.6076 41.3076 11.4974 C 0.0 **** 0.0
47042 C 29.2037 39.8737 11.899 C 0.0 **** 0.0
47043 C 29.9508 38.8549 11.031 C 0.0 **** 0.0
47044 C 29.2229 37.5449 10.8447 C 0.0 **** 0.0
47045 C 26.9982 43.4729 12.9693 C 0.0 **** 0.0
47046 C 27.76 42.4562 12.1581 C 0.0 **** 0.0
47047 C 29.989 41.1635 11.8969 C 0.0 **** 0.0
47048 C 29.2052 42.3043 12.5805 C 0.0 **** 0.0
47049 C 29.9871 43.6532 12.5944 C 0.0 **** 0.0
47050 C 31.5043 43.5059 12.163 C 0.0 **** 0.0
47051 C 32.1744 42.2785 12.7969 C 0.0 **** 0.0
47052 C 31.284 41.0868 12.7092 C 0.0 **** 0.0
47053 O 31.5566 40.12 13.4276 O 0.0 **** 0.0
47054 H -0.987302 58.2264 9.71848 H 0.0 **** 0.0
47055 H 0.17289 57.0602 10.5384 H 0.0 **** 0.0
47056 H 1.04301 59.3791 9.37197 H 0.0 **** 0.0
47057 H 2.07684 57.9119 9.38872 H 0.0 **** 0.0
47058 H 0.181528 58.6789 7.07967 H 0.0 **** 0.0
47059 H 0.785601 56.7003 6.02117 H 0.0 **** 0.0
47060 H 1.1691 55.4194 8.83622 H 0.0 **** 0.0
47061 H 0.122213 54.9235 7.52346 H 0.0 **** 0.0
47062 H 3.29396 56.2982 7.79422 H 0.0 **** 0.0
47063 H 4.51952 57.7185 6.6918 H 0.0 **** 0.0
47064 H 2.18901 58.4838 4.9115 H 0.0 **** 0.0
47065 H 3.64908 59.3743 5.28878 H 0.0 **** 0.0
47066 H 1.80342 60.2249 6.62796 H 0.0 **** 0.0
47067 H 3.06117 59.4912 7.72179 H 0.0 **** 0.0
47068 H 5.56229 55.5415 4.07746 H 0.0 **** 0.0
47069 H 3.93593 54.023 4.41741 H 0.0 **** 0.0
47070 H 2.71096 54.1476 6.96091 H 0.0 **** 0.0
47071 H 2.02888 54.7106 5.44814 H 0.0 **** 0.0
47072 H 5.92231 56.1798 7.08857 H 0.0 **** 0.0
47073 H 6.77031 50.5835 8.15174 H 0.0 **** 0.0
47074 H 5.85833 51.9372 8.79727 H 0.0 **** 0.0
47075 H 4.25339 50.6453 7.70834 H 0.0 **** 0.0
47076 H 5.29433 50.1768 6.3285 H 0.0 **** 0.0
47077 H 3.57251 51.8893 5.53424 H 0.0 **** 0.0
47078 H 7.64138 57.5359 7.7212 H 0.0 **** 0.0
47079 H 8.89617 58.5724 3.56883 H 0.0 **** 0.0
47080 H 7.64042 59.8898 3.77122 H 0.0 **** 0.0
47081 H 6.40285 57.7583 3.74231 H 0.0 **** 0.0
47082 H 10.3087 60.7072 4.30911 H 0.0 **** 0.0
47083 H 9.17976 61.6477 5.30359 H 0.0 **** 0.0
47084 H 11.3962 61.7485 6.39267 H 0.0 **** 0.0
47085 H 11.7428 60.0053 6.04722 H 0.0 **** 0.0
47086 H 7.71019 59.4547 9.07039 H 0.0 **** 0.0
47087 H 8.99222 58.1945 9.37253 H 0.0 **** 0.0
47088 H 9.06455 61.0334 10.3446 H 0.0 **** 0.0
47089 H 11.3912 59.0013 10.0941 H 0.0 **** 0.0
47090 H 11.4662 60.5482 11.0083 H 0.0 **** 0.0
47091 H 12.4541 60.6715 8.73782 H 0.0 **** 0.0
47092 H 11.1148 61.8363 9.10355 H 0.0 **** 0.0
47093 H 11.0493 57.3117 7.32899 H 0.0 **** 0.0
47094 H 15.2216 54.8721 9.21447 H 0.0 **** 0.0
47095 H 17.3771 53.6669 8.94972 H 0.0 **** 0.0
47096 H 10.702 49.3175 7.80631 H 0.0 **** 0.0
47097 H 21.5477 50.1145 11.7451 H 0.0 **** 0.0
47098 H 19.9198 51.5909 11.927 H 0.0 **** 0.0
47099 H 20.5702 52.9348 9.29517 H 0.0 **** 0.0
47100 H 21.5995 53.907 11.4004 H 0.0 **** 0.0
47101 H 20.6927 53.4535 12.8593 H 0.0 **** 0.0
47102 H 22.3629 51.7764 13.4557 H 0.0 **** 0.0
47103 H 22.9674 53.4632 13.2964 H 0.0 **** 0.0
47104 H 23.9513 53.0781 11.2128 H 0.0 **** 0.0
47105 H 22.9304 51.7963 9.66978 H 0.0 **** 0.0
47106 H 23.8478 49.2616 10.9847 H 0.0 **** 0.0
47107 H 23.7411 49.5309 9.33388 H 0.0 **** 0.0
47108 H 25.4906 51.3108 9.34189 H 0.0 **** 0.0
47109 H 26.0243 49.7932 9.95631 H 0.0 **** 0.0
47110 H 26.4153 52.1945 11.3314 H 0.0 **** 0.0
47111 H 26.6051 50.4975 11.9792 H 0.0 **** 0.0
47112 H 24.4473 50.602 12.8569 H 0.0 **** 0.0
47113 H 13.2526 45.7256 5.41933 H 0.0 **** 0.0
47114 H 11.0178 46.6097 5.20972 H 0.0 **** 0.0
47115 H 10.6269 46.797 8.1984 H 0.0 **** 0.0
47116 H 9.36632 46.7938 6.88681 H 0.0 **** 0.0
47117 H 9.14521 44.6533 7.90841 H 0.0 **** 0.0
47118 H 10.8836 44.5582 8.35144 H 0.0 **** 0.0
47119 H 9.82252 44.2434 5.46147 H 0.0 **** 0.0
47120 H 10.1941 42.8671 6.52736 H 0.0 **** 0.0
47121 H 11.9469 43.9775 4.67376 H 0.0 **** 0.0
47122 H 12.4527 43.2334 6.17968 H 0.0 **** 0.0
47123 H 14.7916 44.2564 9.20722 H 0.0 **** 0.0
47124 H 16.7603 43.0318 10.1177 H 0.0 **** 0.0
47125 H 20.2931 47.6776 12.5802 H 0.0 **** 0.0
47126 H 23.4338 47.0497 11.3688 H 0.0 **** 0.0
47127 H 23.979 44.999 10.7882 H 0.0 **** 0.0
47128 H 24.4002 44.4829 13.8148 H 0.0 **** 0.0
47129 H 25.7969 46.5911 12.0909 H 0.0 **** 0.0
47130 H 26.3698 46.044 13.7903 H 0.0 **** 0.0
47131 H 24.7636 48.1918 13.4207 H 0.0 **** 0.0
47132 H 24.503 47.0828 14.8254 H 0.0 **** 0.0
47133 H 22.4274 47.8748 13.4794 H 0.0 **** 0.0
47134 H 22.4223 46.1679 14.0733 H 0.0 **** 0.0
47135 H 7.88878 59.1486 11.655 H 0.0 **** 0.0
47136 H 9.11599 57.4062 12.9347 H 0.0 **** 0.0
47137 H 10.7135 58.0218 12.2801 H 0.0 **** 0.0
47138 H 9.51612 57.2256 11.1398 H 0.0 **** 0.0
47139 H 8.71518 61.1929 12.8443 H 0.0 **** 0.0
47140 H 10.2671 60.336 13.0351 H 0.0 **** 0.0
47141 H 8.78085 59.692 13.9109 H 0.0 **** 0.0
47142 H 19.4704 54.3976 10.2256 H 0.0 **** 0.0
47143 H 19.5351 40.2098 10.3789 H 0.0 **** 0.0
47144 H 20.6285 38.1134 10.478 H 0.0 **** 0.0
47145 H 22.8673 36.8195 10.135 H 0.0 **** 0.0
47146 H 25.0027 35.6632 9.59751 H 0.0 **** 0.0
47147 H 27.6065 35.8191 9.39471 H 0.0 **** 0.0
47148 H 30.956 38.5706 11.4957 H 0.0 **** 0.0
47149 H 29.7295 36.8538 10.1521 H 0.0 **** 0.0
47150 H 27.5723 44.4083 13.0183 H 0.0 **** 0.0
47151 H 29.5467 44.3158 11.843 H 0.0 **** 0.0
47152 H 29.9507 44.0602 13.6172 H 0.0 **** 0.0
47153 H 32.0379 44.4345 12.4153 H 0.0 **** 0.0
47154 H 31.5534 43.4046 11.0642 H 0.0 **** 0.0
47155 H 32.4368 42.4622 13.919 H 0.0 **** 0.0
47156 H 33.1521 42.0933 12.312 H 0.0 **** 0.0
47157 C 30.2797 9.62559 59.6662 C 0.0 **** 0.0
47158 C 31.0092 9.41273 58.3148 C 0.0 **** 0.0
47159 C 32.4262 9.01491 58.5093 C 0.0 **** 0.0
47160 C 33.1463 9.92334 59.5218 C 0.0 **** 0.0
47161 C 32.2095 10.299 60.6667 C 0.0 **** 0.0
47162 O 31.1163 9.4305 60.7889 O 0.0 **** 0.0
47163 C 33.9049 11.184 58.9416 C 0.0 **** 0.0
47164 C 33.7244 11.3605 57.4122 C 0.0 **** 0.0
47165 C 34.0479 10.0629 56.7143 C 0.0 **** 0.0
47166 C 33.1789 8.8293 57.1843 C 0.0 **** 0.0
47167 O 34.4016 12.4552 56.8284 O 0.0 **** 0.0
47168 C 35.3673 13.1139 57.5665 C 0.0 **** 0.0
47169 C 36.2095 12.193 58.4409 C 0.0 **** 0.0
47170 C 35.3788 11.3097 59.4155 C 0.0 **** 0.0
47171 C 37.272 12.9966 59.1382 C 0.0 **** 0.0
47172 C 36.8467 14.1708 59.83 C 0.0 **** 0.0
47173 C 35.9311 15.0722 59.0064 C 0.0 **** 0.0
47174 C 34.777 14.3044 58.3213 C 0.0 **** 0.0
47175 C 35.3928 16.2937 59.7966 C 0.0 **** 0.0
47176 C 36.5371 17.0287 60.4425 C 0.0 **** 0.0
47177 C 37.4615 16.1022 61.3202 C 0.0 **** 0.0
47178 C 38.0546 15.0303 60.4129 C 0.0 **** 0.0
47179 C 39.1698 14.1613 60.9976 C 0.0 **** 0.0
47180 C 39.724 13.2837 59.8287 C 0.0 **** 0.0
47181 C 38.6137 12.5382 59.1455 C 0.0 **** 0.0
47182 O 38.4672 16.7378 62.106 O 0.0 **** 0.0
47183 C 38.5587 18.1036 61.8039 C 0.0 **** 0.0
47184 C 37.1919 18.8067 62.0677 C 0.0 **** 0.0
47185 C 36.0123 18.1466 61.3137 C 0.0 **** 0.0
47186 C 33.9707 15.3494 57.535 C 0.0 **** 0.0
47187 C 33.3471 16.4216 58.3909 C 0.0 **** 0.0
47188 C 34.4957 17.2416 58.9315 C 0.0 **** 0.0
47189 C 32.3108 17.2289 57.6305 C 0.0 **** 0.0
47190 C 32.4156 17.411 56.2732 C 0.0 **** 0.0
47191 C 33.332 16.57 55.3934 C 0.0 **** 0.0
47192 C 33.9714 15.4622 56.1662 C 0.0 **** 0.0
47193 C 31.6317 18.4883 55.5558 C 0.0 **** 0.0
47194 C 31.1344 19.5733 56.541 C 0.0 **** 0.0
47195 C 30.5778 18.9382 57.8275 C 0.0 **** 0.0
47196 C 31.2004 17.8768 58.3497 C 0.0 **** 0.0
47197 C 30.6813 17.2329 59.6308 C 0.0 **** 0.0
47198 C 29.3161 17.7192 60.1215 C 0.0 **** 0.0
47199 C 29.2381 19.2168 60.0291 C 0.0 **** 0.0
47200 C 29.5073 19.7144 58.6054 C 0.0 **** 0.0
47201 C 35.1944 19.2183 60.5314 C 0.0 **** 0.0
47202 C 34.1037 18.5786 59.618 C 0.0 **** 0.0
47203 C 37.2703 20.3576 61.949 C 0.0 **** 0.0
47204 C 36.0265 20.9886 62.5573 C 0.0 **** 0.0
47205 S 34.4574 20.4116 61.7245 S 0.0 **** 0.0
47206 C 36.0861 22.5067 62.4134 C 0.0 **** 0.0
47207 C 37.4421 23.1003 62.8143 C 0.0 **** 0.0
47208 C 38.6746 22.4027 62.2505 C 0.0 **** 0.0
47209 C 38.5693 20.949 62.5584 C 0.0 **** 0.0
47210 C 39.9089 22.985 62.9297 C 0.0 **** 0.0
47211 C 40.0408 24.4361 62.4545 C 0.0 **** 0.0
47212 C 38.7884 25.2605 62.652 C 0.0 **** 0.0
47213 C 37.5109 24.49 62.2394 C 0.0 **** 0.0
47214 C 38.9556 26.6377 61.9345 C 0.0 **** 0.0
47215 C 40.208 27.4271 62.4155 C 0.0 **** 0.0
47216 C 41.4344 26.5535 62.6324 C 0.0 **** 0.0
47217 C 41.1504 25.1393 63.2152 C 0.0 **** 0.0
47218 C 39.7571 20.195 61.9808 C 0.0 **** 0.0
47219 C 39.7243 18.777 62.5299 C 0.0 **** 0.0
47220 C 41.1713 22.1651 62.7803 C 0.0 **** 0.0
47221 C 41.0657 20.9945 61.8145 C 0.0 **** 0.0
47222 C 42.4319 24.3103 63.3606 C 0.0 **** 0.0
47223 C 42.3764 23.046 62.4539 C 0.0 **** 0.0
47224 C 42.6643 27.287 63.2671 C 0.0 **** 0.0
47225 C 43.6209 26.3205 64.0096 C 0.0 **** 0.0
47226 C 43.6821 25.0651 63.1976 C 0.0 **** 0.0
47227 O 40.515 28.4341 61.4901 O 0.0 **** 0.0
47228 C 39.3782 29.2483 61.04 C 0.0 **** 0.0
47229 C 38.0787 29.0518 61.8887 C 0.0 **** 0.0
47230 C 37.6821 27.5334 61.8763 C 0.0 **** 0.0
47231 C 36.8932 29.952 61.39 C 0.0 **** 0.0
47232 C 37.1342 30.6656 60.0246 C 0.0 **** 0.0
47233 C 37.7209 29.6693 59.0422 C 0.0 **** 0.0
47234 C 39.0757 28.9633 59.5887 C 0.0 **** 0.0
47235 C 40.2846 29.3066 58.7231 C 0.0 **** 0.0
47236 C 39.975 29.0248 57.2337 C 0.0 **** 0.0
47237 C 38.5378 29.416 56.7788 C 0.0 **** 0.0
47238 N 37.9154 30.3073 57.7394 N 0.0 **** 0.0
47239 C 42.3381 20.1881 61.7329 C 0.0 **** 0.0
47240 C 43.591 21.0901 61.5389 C 0.0 **** 0.0
47241 C 43.5894 22.1769 62.5982 C 0.0 **** 0.0
47242 O 44.7328 20.3324 61.7216 O 0.0 **** 0.0
47243 C 44.8323 19.3666 60.6813 C 0.0 **** 0.0
47244 C 43.5142 18.4719 60.6698 C 0.0 **** 0.0
47245 O 42.3259 19.2221 60.6773 O 0.0 **** 0.0
47246 C 43.5931 17.3932 61.7454 C 0.0 **** 0.0
47247 C 44.7925 16.431 61.4915 C 0.0 **** 0.0
47248 C 45.9571 17.0583 60.7133 C 0.0 **** 0.0
47249 C 46.112 18.5608 60.9813 C 0.0 **** 0.0
47250 C 44.8145 24.1179 63.6733 C 0.0 **** 0.0
47251 C 44.9344 22.8935 62.7615 C 0.0 **** 0.0
47252 C 45.011 26.9442 64.3063 C 0.0 **** 0.0
47253 C 46.1315 26.3063 63.4908 C 0.0 **** 0.0
47254 C 46.1807 24.8231 63.9311 C 0.0 **** 0.0
47255 C 45.067 28.4454 64.5099 C 0.0 **** 0.0
47256 C 43.8832 29.2489 64.021 C 0.0 **** 0.0
47257 C 42.5226 28.531 64.1164 C 0.0 **** 0.0
47258 O 47.4214 26.9115 63.4219 O 0.0 **** 0.0
47259 C 47.5476 28.0681 64.2667 C 0.0 **** 0.0
47260 C 46.3486 29.0577 63.9691 C 0.0 **** 0.0
47261 C 43.9111 30.7379 64.3467 C 0.0 **** 0.0
47262 C 45.3531 31.3393 64.3209 C 0.0 **** 0.0
47263 C 46.5021 30.3829 64.7029 C 0.0 **** 0.0
47264 C 45.4508 32.5756 65.2778 C 0.0 **** 0.0
47265 C 44.1767 33.4058 65.2152 C 0.0 **** 0.0
47266 C 43.0261 32.5826 65.7724 C 0.0 **** 0.0
47267 C 43.1377 31.0708 65.6438 C 0.0 **** 0.0
47268 C 47.8556 31.0406 64.4464 C 0.0 **** 0.0
47269 C 48.9737 30.0731 64.7989 C 0.0 **** 0.0
47270 C 48.8819 28.7296 64.0356 C 0.0 **** 0.0
47271 C 46.8232 33.3051 64.957 C 0.0 **** 0.0
47272 C 48.0164 32.3441 65.2133 C 0.0 **** 0.0
47273 C 29.0326 17.1776 61.5585 C 0.0 **** 0.0
47274 C 29.8416 17.7688 62.7154 C 0.0 **** 0.0
47275 C 27.4975 17.3608 61.7898 C 0.0 **** 0.0
47276 O 36.8921 27.2934 62.962 O 0.0 **** 0.0
47277 C 49.9469 27.7937 64.5453 C 0.0 **** 0.0
47278 C 51.3194 28.3536 64.2112 C 0.0 **** 0.0
47279 C 51.5029 29.763 64.7961 C 0.0 **** 0.0
47280 C 50.3336 30.7233 64.4019 C 0.0 **** 0.0
47281 C 50.5328 32.0805 65.0208 C 0.0 **** 0.0
47282 C 51.8187 32.7053 64.4781 C 0.0 **** 0.0
47283 C 53.0156 31.8128 64.7809 C 0.0 **** 0.0
47284 C 52.7864 30.3577 64.308 C 0.0 **** 0.0
47285 C 54.36 32.4194 64.2156 C 0.0 **** 0.0
47286 C 54.3511 33.9406 64.0604 C 0.0 **** 0.0
47287 C 53.5041 34.6243 65.1408 C 0.0 **** 0.0
47288 C 52.0281 34.0881 65.134 C 0.0 **** 0.0
47289 C 50.9029 35.0258 64.6613 C 0.0 **** 0.0
47290 C 49.5566 34.4354 65.2048 C 0.0 **** 0.0
47291 C 49.3213 33.0095 64.7256 C 0.0 **** 0.0
47292 C 51.163 36.3755 65.2789 C 0.0 **** 0.0
47293 C 52.4494 36.9304 64.6526 C 0.0 **** 0.0
47294 C 53.6542 36.1372 65.125 C 0.0 **** 0.0
47295 C 47.046 34.7115 65.536 C 0.0 **** 0.0
47296 C 48.3349 35.3094 64.8977 C 0.0 **** 0.0
47297 C 49.9672 37.3484 65.0784 C 0.0 **** 0.0
47298 C 48.5493 36.75 65.3831 C 0.0 **** 0.0
47299 C 47.4507 37.7478 64.8875 C 0.0 **** 0.0
47300 C 47.9603 39.1966 64.6128 C 0.0 **** 0.0
47301 C 49.0468 39.6433 65.6454 C 0.0 **** 0.0
47302 C 50.0367 38.5672 65.9652 C 0.0 **** 0.0
47303 O 50.7235 38.6251 66.9323 O 0.0 **** 0.0
47304 H 29.4192 8.91335 59.8109 H 0.0 **** 0.0
47305 H 29.8269 10.6347 59.6638 H 0.0 **** 0.0
47306 H 30.4981 8.62666 57.7033 H 0.0 **** 0.0
47307 H 31.0002 10.3538 57.7228 H 0.0 **** 0.0
47308 H 32.3475 8.01717 58.9928 H 0.0 **** 0.0
47309 H 33.9674 9.34383 60.0081 H 0.0 **** 0.0
47310 H 31.8065 11.3307 60.5425 H 0.0 **** 0.0
47311 H 32.6939 10.3625 61.6733 H 0.0 **** 0.0
47312 H 33.374 12.0644 59.3583 H 0.0 **** 0.0
47313 H 32.7003 11.6216 57.2119 H 0.0 **** 0.0
47314 H 35.1217 9.82291 56.8103 H 0.0 **** 0.0
47315 H 34.0169 10.1738 55.6064 H 0.0 **** 0.0
47316 H 33.8444 7.94957 57.1776 H 0.0 **** 0.0
47317 H 32.4842 8.64094 56.3741 H 0.0 **** 0.0
47318 H 36.0653 13.5285 56.826 H 0.0 **** 0.0
47319 H 36.7024 11.5674 57.7035 H 0.0 **** 0.0
47320 H 35.3906 11.8145 60.4515 H 0.0 **** 0.0
47321 H 35.8903 10.3189 59.4184 H 0.0 **** 0.0
47322 H 34.1594 13.8817 59.1207 H 0.0 **** 0.0
47323 H 39.9307 14.7857 61.4416 H 0.0 **** 0.0
47324 H 38.7407 13.4716 61.751 H 0.0 **** 0.0
47325 H 40.3667 12.4665 60.2753 H 0.0 **** 0.0
47326 H 40.2247 13.8644 59.0431 H 0.0 **** 0.0
47327 H 38.9361 11.6181 58.5825 H 0.0 **** 0.0
47328 H 32.8547 15.8703 59.2063 H 0.0 **** 0.0
47329 H 34.091 17.2264 54.9246 H 0.0 **** 0.0
47330 H 32.7391 16.2071 54.5947 H 0.0 **** 0.0
47331 H 34.5224 14.7127 55.5782 H 0.0 **** 0.0
47332 H 32.2278 19.0354 54.7926 H 0.0 **** 0.0
47333 H 30.7599 18.076 55.0503 H 0.0 **** 0.0
47334 H 30.2806 20.1795 56.0534 H 0.0 **** 0.0
47335 H 31.9798 20.2969 56.7947 H 0.0 **** 0.0
47336 H 30.5574 16.1287 59.4837 H 0.0 **** 0.0
47337 H 31.4955 17.4159 60.3952 H 0.0 **** 0.0
47338 H 28.5729 17.3274 59.3909 H 0.0 **** 0.0
47339 H 29.9779 19.7419 60.6754 H 0.0 **** 0.0
47340 H 28.2387 19.6393 60.3194 H 0.0 **** 0.0
47341 H 29.7561 20.753 58.6591 H 0.0 **** 0.0
47342 H 28.5894 19.6057 57.9834 H 0.0 **** 0.0
47343 H 33.721 19.3261 58.9014 H 0.0 **** 0.0
47344 H 35.2887 23.0812 63.0174 H 0.0 **** 0.0
47345 H 36.6443 25.0797 62.5685 H 0.0 **** 0.0
47346 H 40.6838 18.1975 62.407 H 0.0 **** 0.0
47347 H 39.6455 30.3024 61.1272 H 0.0 **** 0.0
47348 H 38.1868 29.3583 62.976 H 0.0 **** 0.0
47349 H 37.1782 27.302 60.9486 H 0.0 **** 0.0
47350 H 35.9318 29.438 61.3149 H 0.0 **** 0.0
47351 H 36.7341 30.7703 62.098 H 0.0 **** 0.0
47352 H 37.8743 31.5087 60.1703 H 0.0 **** 0.0
47353 H 36.1742 31.117 59.6078 H 0.0 **** 0.0
47354 H 36.9884 28.8464 58.9047 H 0.0 **** 0.0
47355 H 38.8729 27.8567 59.4251 H 0.0 **** 0.0
47356 H 40.487 30.3901 58.8156 H 0.0 **** 0.0
47357 H 41.1751 28.6863 59.027 H 0.0 **** 0.0
47358 H 40.1227 27.9386 57.0299 H 0.0 **** 0.0
47359 H 40.7616 29.5363 56.5879 H 0.0 **** 0.0
47360 H 37.9366 28.4949 56.6464 H 0.0 **** 0.0
47361 H 38.6231 29.8868 55.8007 H 0.0 **** 0.0
47362 H 38.5309 31.1389 57.8549 H 0.0 **** 0.0
47363 H 45.0103 19.8585 59.7196 H 0.0 **** 0.0
47364 H 43.5069 17.9588 59.6819 H 0.0 **** 0.0
47365 H 43.6723 17.8969 62.7736 H 0.0 **** 0.0
47366 H 42.6261 16.8576 61.8235 H 0.0 **** 0.0
47367 H 44.4351 15.5521 60.9075 H 0.0 **** 0.0
47368 H 45.2096 16.0021 62.4584 H 0.0 **** 0.0
47369 H 45.7233 16.8686 59.6159 H 0.0 **** 0.0
47370 H 46.9484 16.5675 60.8155 H 0.0 **** 0.0
47371 H 47.0227 18.9459 60.4134 H 0.0 **** 0.0
47372 H 46.4142 18.6948 62.0512 H 0.0 **** 0.0
47373 H 45.6929 22.203 63.2106 H 0.0 **** 0.0
47374 H 46.4715 24.7705 65.0115 H 0.0 **** 0.0
47375 H 41.7698 29.1763 63.6351 H 0.0 **** 0.0
47376 H 43.3319 31.184 63.4904 H 0.0 **** 0.0
47377 H 45.5513 31.694 63.2523 H 0.0 **** 0.0
47378 H 45.4887 32.2281 66.3155 H 0.0 **** 0.0
47379 H 43.9366 33.7156 64.1725 H 0.0 **** 0.0
47380 H 44.253 34.318 65.8257 H 0.0 **** 0.0
47381 H 42.102 32.9257 65.2641 H 0.0 **** 0.0
47382 H 42.8694 32.8591 66.8273 H 0.0 **** 0.0
47383 H 42.0994 30.6382 65.6912 H 0.0 **** 0.0
47384 H 43.66 30.7038 66.5138 H 0.0 **** 0.0
47385 H 29.1622 16.0814 61.4749 H 0.0 **** 0.0
47386 H 29.7435 17.1905 63.6281 H 0.0 **** 0.0
47387 H 29.4653 18.7646 62.8964 H 0.0 **** 0.0
47388 H 30.924 17.7471 62.5193 H 0.0 **** 0.0
47389 H 26.859 17.0505 60.9361 H 0.0 **** 0.0
47390 H 27.3092 18.4186 62.0236 H 0.0 **** 0.0
47391 H 27.1954 16.7505 62.6517 H 0.0 **** 0.0
47392 H 35.9373 27.5146 62.6722 H 0.0 **** 0.0
47393 H 49.8328 26.7764 64.1402 H 0.0 **** 0.0
47394 H 52.1392 27.6505 64.5816 H 0.0 **** 0.0
47395 H 53.6757 29.6995 64.6195 H 0.0 **** 0.0
47396 H 54.6783 31.9432 63.2328 H 0.0 **** 0.0
47397 H 55.3949 34.3543 64.0824 H 0.0 **** 0.0
47398 H 52.5764 38.0016 64.9262 H 0.0 **** 0.0
47399 H 54.5723 36.4365 64.5648 H 0.0 **** 0.0
47400 H 46.1558 35.4124 65.4104 H 0.0 **** 0.0
47401 H 46.9534 37.3137 63.9375 H 0.0 **** 0.0
47402 H 46.7002 37.8288 65.6586 H 0.0 **** 0.0
47403 H 47.0976 39.904 64.6287 H 0.0 **** 0.0
47404 H 48.4383 39.2258 63.6074 H 0.0 **** 0.0
47405 H 48.596 39.9534 66.6148 H 0.0 **** 0.0
47406 H 49.6505 40.5472 65.2098 H 0.0 **** 0.0
47407 C 47.4563 38.9643 72.3571 C 0.0 **** 0.0
47408 C 46.2607 39.9163 72.1734 C 0.0 **** 0.0
47409 C 46.0637 40.2591 70.6536 C 0.0 **** 0.0
47410 C 47.4599 40.5242 70.0137 C 0.0 **** 0.0
47411 C 48.462 39.3897 70.3301 C 0.0 **** 0.0
47412 O 47.9336 38.3709 71.1646 O 0.0 **** 0.0
47413 C 48.0642 41.9429 70.3763 C 0.0 **** 0.0
47414 C 46.991 43.018 70.3687 C 0.0 **** 0.0
47415 C 45.6705 42.5701 69.708 C 0.0 **** 0.0
47416 C 45.0666 41.3904 70.4383 C 0.0 **** 0.0
47417 O 47.4302 44.2611 69.8417 O 0.0 **** 0.0
47418 C 48.7664 44.6164 70.2248 C 0.0 **** 0.0
47419 C 49.7889 43.6805 69.5963 C 0.0 **** 0.0
47420 C 49.2371 42.2654 69.4354 C 0.0 **** 0.0
47421 C 51.1968 43.7847 70.2256 C 0.0 **** 0.0
47422 C 51.3535 44.1734 71.6188 C 0.0 **** 0.0
47423 C 50.3425 45.2679 72.0687 C 0.0 **** 0.0
47424 C 48.8927 44.8393 71.7567 C 0.0 **** 0.0
47425 C 50.4809 45.4614 73.5794 C 0.0 **** 0.0
47426 C 51.9198 45.8032 73.9457 C 0.0 **** 0.0
47427 C 52.9176 44.7453 73.4903 C 0.0 **** 0.0
47428 C 52.8058 44.477 72.0238 C 0.0 **** 0.0
47429 C 53.6402 43.2229 71.6371 C 0.0 **** 0.0
47430 C 53.6713 43.053 70.1086 C 0.0 **** 0.0
47431 C 52.3029 43.3416 69.4868 C 0.0 **** 0.0
47432 O 54.2377 45.1114 73.7488 O 0.0 **** 0.0
47433 C 54.4544 45.2116 75.1262 C 0.0 **** 0.0
47434 C 53.5309 46.3105 75.7445 C 0.0 **** 0.0
47435 C 52.0901 45.9392 75.4557 C 0.0 **** 0.0
47436 C 47.9675 45.8957 72.3341 C 0.0 **** 0.0
47437 C 48.0494 46.1127 73.8536 C 0.0 **** 0.0
47438 C 49.5226 46.5924 74.1029 C 0.0 **** 0.0
47439 C 47.0003 47.0326 74.4628 C 0.0 **** 0.0
47440 C 46.3687 47.915 73.6284 C 0.0 **** 0.0
47441 C 46.6819 47.9919 72.1613 C 0.0 **** 0.0
47442 C 47.1927 46.7074 71.5895 C 0.0 **** 0.0
47443 C 45.3669 48.9296 74.2029 C 0.0 **** 0.0
47444 C 45.7019 49.3075 75.6455 C 0.0 **** 0.0
47445 C 46.1441 48.1596 76.4999 C 0.0 **** 0.0
47446 C 46.6098 47.0079 75.9299 C 0.0 **** 0.0
47447 C 46.8496 45.7346 76.7953 C 0.0 **** 0.0
47448 C 46.5322 45.9161 78.361 C 0.0 **** 0.0
47449 C 46.9393 47.3405 78.7594 C 0.0 **** 0.0
47450 C 46.032 48.293 78.0268 C 0.0 **** 0.0
47451 C 51.1977 47.1628 75.9101 C 0.0 **** 0.0
47452 C 49.7865 46.957 75.5457 C 0.0 **** 0.0
47453 C 53.7615 46.3973 77.2657 C 0.0 **** 0.0
47454 C 53.0561 47.6711 77.7934 C 0.0 **** 0.0
47455 S 51.2846 47.4806 77.6603 S 0.0 **** 0.0
47456 C 53.4067 48.0357 79.26 C 0.0 **** 0.0
47457 C 54.5076 47.1272 79.828 C 0.0 **** 0.0
47458 C 55.6933 47.0812 78.8726 C 0.0 **** 0.0
47459 C 55.2685 46.3793 77.6094 C 0.0 **** 0.0
47460 C 56.8207 46.2664 79.4686 C 0.0 **** 0.0
47461 C 57.2762 46.8221 80.8436 C 0.0 **** 0.0
47462 C 56.0917 46.6814 81.8105 C 0.0 **** 0.0
47463 C 55.0284 47.6171 81.1834 C 0.0 **** 0.0
47464 C 56.6422 47.1422 83.1951 C 0.0 **** 0.0
47465 C 57.7911 46.2433 83.7519 C 0.0 **** 0.0
47466 C 58.9088 46.165 82.7394 C 0.0 **** 0.0
47467 C 58.4195 45.9212 81.2988 C 0.0 **** 0.0
47468 C 56.2245 46.6197 76.4825 C 0.0 **** 0.0
47469 C 55.9287 45.5688 75.3838 C 0.0 **** 0.0
47470 C 57.9696 46.0103 78.4155 C 0.0 **** 0.0
47471 C 57.7268 46.5725 77.0056 C 0.0 **** 0.0
47472 C 59.6034 45.8881 80.2921 C 0.0 **** 0.0
47473 C 59.3352 46.4729 78.8961 C 0.0 **** 0.0
47474 C 59.981 45.128 82.9921 C 0.0 **** 0.0
47475 C 61.2023 45.6046 82.2627 C 0.0 **** 0.0
47476 C 61.0032 46.2542 80.8184 C 0.0 **** 0.0
47477 O 58.2337 46.7724 84.9772 O 0.0 **** 0.0
47478 C 57.2949 46.342 85.9407 C 0.0 **** 0.0
47479 C 55.8246 46.7628 85.5721 C 0.0 **** 0.0
47480 C 55.7781 47.7053 84.3427 C 0.0 **** 0.0
47481 C 55.0339 47.311 86.7116 C 0.0 **** 0.0
47482 C 55.3037 46.4884 87.9717 C 0.0 **** 0.0
47483 C 56.7176 46.8215 88.4838 C 0.0 **** 0.0
47484 C 57.7846 46.8034 87.348 C 0.0 **** 0.0
47485 C 59.0222 45.9929 87.7719 C 0.0 **** 0.0
47486 C 59.5014 46.3401 89.1665 C 0.0 **** 0.0
47487 C 58.3504 46.2599 90.2307 C 0.0 **** 0.0
47488 N 57.0481 45.9499 89.6076 N 0.0 **** 0.0
47489 C 58.7771 46.0094 76.0604 C 0.0 **** 0.0
47490 C 60.1684 46.3704 76.5163 C 0.0 **** 0.0
47491 C 60.4278 45.8677 77.9288 C 0.0 **** 0.0
47492 O 61.0629 45.7384 75.6454 O 0.0 **** 0.0
47493 C 60.9052 46.3199 74.367 C 0.0 **** 0.0
47494 C 59.4565 46.0955 73.8399 C 0.0 **** 0.0
47495 O 58.5071 46.5315 74.7439 O 0.0 **** 0.0
47496 C 59.2133 44.6266 73.4694 C 0.0 **** 0.0
47497 C 60.2772 44.0231 72.5611 C 0.0 **** 0.0
47498 C 61.4006 45.0497 72.2117 C 0.0 **** 0.0
47499 C 61.9921 45.6064 73.474 C 0.0 **** 0.0
47500 C 62.0151 45.713 79.7916 C 0.0 **** 0.0
47501 C 61.7658 46.3734 78.4301 C 0.0 **** 0.0
47502 C 62.389 44.724 82.4407 C 0.0 **** 0.0
47503 C 63.6353 45.3268 81.7853 C 0.0 **** 0.0
47504 C 63.4557 45.7147 80.2805 C 0.0 **** 0.0
47505 C 62.6889 44.5937 83.9533 C 0.0 **** 0.0
47506 C 61.4944 43.8713 84.5752 C 0.0 **** 0.0
47507 C 60.2388 44.7434 84.4453 C 0.0 **** 0.0
47508 O 64.6378 44.3536 81.9086 O 0.0 **** 0.0
47509 C 64.9852 44.335 83.2682 C 0.0 **** 0.0
47510 C 63.8934 43.7193 84.1392 C 0.0 **** 0.0
47511 C 61.6602 43.4416 86.0479 C 0.0 **** 0.0
47512 C 63.1178 43.3518 86.5288 C 0.0 **** 0.0
47513 C 64.2743 43.7359 85.5752 C 0.0 **** 0.0
47514 C 63.4852 41.9655 87.2257 C 0.0 **** 0.0
47515 C 62.3854 41.443 88.1677 C 0.0 **** 0.0
47516 C 60.934 41.5057 87.5307 C 0.0 **** 0.0
47517 C 61.0139 42.0529 86.1265 C 0.0 **** 0.0
47518 C 65.6044 42.9394 85.7466 C 0.0 **** 0.0
47519 C 66.6947 43.6243 84.9578 C 0.0 **** 0.0
47520 C 66.3576 43.6508 83.4632 C 0.0 **** 0.0
47521 C 64.8162 42.0853 87.9906 C 0.0 **** 0.0
47522 C 65.9925 42.729 87.2161 C 0.0 **** 0.0
47523 C 47.1626 44.767 79.258 C 0.0 **** 0.0
47524 C 48.6919 44.741 79.2063 C 0.0 **** 0.0
47525 C 46.7495 44.8822 80.7103 C 0.0 **** 0.0
47526 O 54.4271 47.9137 83.9929 O 0.0 **** 0.0
47527 C 67.4704 44.3952 82.6953 C 0.0 **** 0.0
47528 C 68.8371 43.8407 82.9895 C 0.0 **** 0.0
47529 C 69.1017 43.8118 84.4632 C 0.0 **** 0.0
47530 C 68.0631 42.9776 85.1801 C 0.0 **** 0.0
47531 C 68.4041 42.8351 86.6604 C 0.0 **** 0.0
47532 C 69.7574 42.177 86.7773 C 0.0 **** 0.0
47533 C 70.7989 43.1027 86.1594 C 0.0 **** 0.0
47534 C 70.5261 43.2733 84.6854 C 0.0 **** 0.0
47535 C 72.1739 42.5999 86.4289 C 0.0 **** 0.0
47536 C 72.4892 42.456 87.9295 C 0.0 **** 0.0
47537 C 71.2729 42.4849 88.8392 C 0.0 **** 0.0
47538 C 70.0919 41.7074 88.225 C 0.0 **** 0.0
47539 C 68.8921 41.7747 89.1435 C 0.0 **** 0.0
47540 C 67.6557 41.1572 88.5056 C 0.0 **** 0.0
47541 C 67.3013 41.9141 87.1857 C 0.0 **** 0.0
47542 C 69.2047 41.1386 90.5165 C 0.0 **** 0.0
47543 C 70.3275 42.0171 91.0681 C 0.0 **** 0.0
47544 C 71.5679 41.9219 90.2482 C 0.0 **** 0.0
47545 C 65.1778 40.8567 88.8041 C 0.0 **** 0.0
47546 C 66.4728 41.1238 89.5153 C 0.0 **** 0.0
47547 C 67.9864 40.9062 91.4514 C 0.0 **** 0.0
47548 C 66.8122 40.2225 90.7186 C 0.0 **** 0.0
47549 C 65.6428 40.221 91.6497 C 0.0 **** 0.0
47550 C 65.9261 39.1948 92.7591 C 0.0 **** 0.0
47551 C 67.1991 39.5482 93.5625 C 0.0 **** 0.0
47552 C 68.2667 39.9672 92.6368 C 0.0 **** 0.0
47553 O 69.3861 39.5652 92.8132 O 0.0 **** 0.0
47554 H 47.1051 38.1763 73.0674 H 0.0 **** 0.0
47555 H 48.3106 39.5092 72.797 H 0.0 **** 0.0
47556 H 45.2569 39.4053 72.4929 H 0.0 **** 0.0
47557 H 46.4395 40.8556 72.7055 H 0.0 **** 0.0
47558 H 45.633 39.3786 70.1562 H 0.0 **** 0.0
47559 H 47.247 40.5124 68.9645 H 0.0 **** 0.0
47560 H 49.3558 39.7518 70.8245 H 0.0 **** 0.0
47561 H 48.7925 38.949 69.35 H 0.0 **** 0.0
47562 H 48.4634 41.8917 71.4222 H 0.0 **** 0.0
47563 H 46.7162 43.2276 71.4085 H 0.0 **** 0.0
47564 H 45.8546 42.3411 68.6503 H 0.0 **** 0.0
47565 H 44.9018 43.3841 69.8053 H 0.0 **** 0.0
47566 H 44.1806 41.0194 69.8221 H 0.0 **** 0.0
47567 H 44.603 41.7794 71.3767 H 0.0 **** 0.0
47568 H 48.9668 45.631 69.7461 H 0.0 **** 0.0
47569 H 49.9649 44.0583 68.5673 H 0.0 **** 0.0
47570 H 50.0594 41.5496 69.5037 H 0.0 **** 0.0
47571 H 48.8073 42.1537 68.4118 H 0.0 **** 0.0
47572 H 48.7074 43.8693 72.2671 H 0.0 **** 0.0
47573 H 54.7005 43.3592 71.9593 H 0.0 **** 0.0
47574 H 53.1737 42.3616 72.1115 H 0.0 **** 0.0
47575 H 53.9889 41.9485 69.9564 H 0.0 **** 0.0
47576 H 54.4411 43.7339 69.7301 H 0.0 **** 0.0
47577 H 52.2521 43.0807 68.4473 H 0.0 **** 0.0
47578 H 47.8258 45.1485 74.2993 H 0.0 **** 0.0
47579 H 47.362 48.8054 71.9214 H 0.0 **** 0.0
47580 H 45.7403 48.2704 71.6464 H 0.0 **** 0.0
47581 H 47.1768 46.6836 70.5073 H 0.0 **** 0.0
47582 H 45.3567 49.8563 73.5783 H 0.0 **** 0.0
47583 H 44.3429 48.4153 74.2228 H 0.0 **** 0.0
47584 H 44.8177 49.8086 76.0928 H 0.0 **** 0.0
47585 H 46.5373 50.076 75.5786 H 0.0 **** 0.0
47586 H 46.2673 44.8881 76.4003 H 0.0 **** 0.0
47587 H 47.9259 45.4701 76.7061 H 0.0 **** 0.0
47588 H 45.4213 45.7929 78.5069 H 0.0 **** 0.0
47589 H 48.0416 47.5466 78.5132 H 0.0 **** 0.0
47590 H 46.8515 47.5133 79.8718 H 0.0 **** 0.0
47591 H 46.276 49.3601 78.2901 H 0.0 **** 0.0
47592 H 44.9533 48.152 78.396 H 0.0 **** 0.0
47593 H 49.2577 47.8877 75.7081 H 0.0 **** 0.0
47594 H 52.5254 48.2159 79.9095 H 0.0 **** 0.0
47595 H 54.1144 47.6062 81.8114 H 0.0 **** 0.0
47596 H 56.4967 44.6569 75.5816 H 0.0 **** 0.0
47597 H 57.3152 45.26 85.9982 H 0.0 **** 0.0
47598 H 55.3628 45.8249 85.2231 H 0.0 **** 0.0
47599 H 56.2913 48.6163 84.6011 H 0.0 **** 0.0
47600 H 55.2959 48.3681 86.9423 H 0.0 **** 0.0
47601 H 53.9545 47.2384 86.4974 H 0.0 **** 0.0
47602 H 55.2161 45.4085 87.7431 H 0.0 **** 0.0
47603 H 54.5726 46.7048 88.7539 H 0.0 **** 0.0
47604 H 56.6371 47.8786 88.8588 H 0.0 **** 0.0
47605 H 58.0233 47.9015 87.2601 H 0.0 **** 0.0
47606 H 58.7414 44.8617 87.7752 H 0.0 **** 0.0
47607 H 59.8491 46.1508 87.0842 H 0.0 **** 0.0
47608 H 59.9731 47.3434 89.1664 H 0.0 **** 0.0
47609 H 60.3226 45.584 89.3976 H 0.0 **** 0.0
47610 H 58.3925 47.2009 90.8039 H 0.0 **** 0.0
47611 H 58.5203 45.4121 90.8939 H 0.0 **** 0.0
47612 H 57.0426 44.9408 89.3173 H 0.0 **** 0.0
47613 H 61.1435 47.401 74.4577 H 0.0 **** 0.0
47614 H 59.2927 46.7607 72.9593 H 0.0 **** 0.0
47615 H 59.1961 43.9962 74.3729 H 0.0 **** 0.0
47616 H 58.1598 44.5219 72.9934 H 0.0 **** 0.0
47617 H 59.809 43.6674 71.6027 H 0.0 **** 0.0
47618 H 60.7432 43.1105 72.9964 H 0.0 **** 0.0
47619 H 61.0302 45.7715 71.4841 H 0.0 **** 0.0
47620 H 62.228 44.5155 71.7137 H 0.0 **** 0.0
47621 H 62.8112 46.2509 73.2524 H 0.0 **** 0.0
47622 H 62.4471 44.7478 74.0188 H 0.0 **** 0.0
47623 H 62.495 45.9633 77.7293 H 0.0 **** 0.0
47624 H 63.8493 46.763 80.2088 H 0.0 **** 0.0
47625 H 59.3413 44.2039 84.8763 H 0.0 **** 0.0
47626 H 61.0778 44.0922 86.7079 H 0.0 **** 0.0
47627 H 63.1191 44.0599 87.3491 H 0.0 **** 0.0
47628 H 63.6062 41.1491 86.4363 H 0.0 **** 0.0
47629 H 62.3637 41.9685 89.1171 H 0.0 **** 0.0
47630 H 62.575 40.3868 88.3744 H 0.0 **** 0.0
47631 H 60.3128 42.1865 88.1567 H 0.0 **** 0.0
47632 H 60.4924 40.4386 87.5046 H 0.0 **** 0.0
47633 H 59.97 42.1943 85.8045 H 0.0 **** 0.0
47634 H 61.418 41.3737 85.3502 H 0.0 **** 0.0
47635 H 46.7788 43.7567 78.8338 H 0.0 **** 0.0
47636 H 49.1124 44.0132 79.8571 H 0.0 **** 0.0
47637 H 49.1012 45.7068 79.542 H 0.0 **** 0.0
47638 H 49.0659 44.4633 78.1755 H 0.0 **** 0.0
47639 H 45.7094 45.2755 80.7909 H 0.0 **** 0.0
47640 H 47.4817 45.5234 81.2824 H 0.0 **** 0.0
47641 H 46.815 43.8547 81.1968 H 0.0 **** 0.0
47642 H 54.1822 48.8171 84.3053 H 0.0 **** 0.0
47643 H 67.3719 45.4903 82.9274 H 0.0 **** 0.0
47644 H 69.5935 44.4745 82.5171 H 0.0 **** 0.0
47645 H 71.2525 44.0128 84.2806 H 0.0 **** 0.0
47646 H 72.9746 43.2132 85.9184 H 0.0 **** 0.0
47647 H 73.1313 43.3014 88.2147 H 0.0 **** 0.0
47648 H 70.6157 41.7271 92.1069 H 0.0 **** 0.0
47649 H 72.2962 42.5402 90.7718 H 0.0 **** 0.0
47650 H 65.2834 39.9499 88.2307 H 0.0 **** 0.0
47651 H 65.4892 41.2477 92.0076 H 0.0 **** 0.0
47652 H 64.7091 39.9082 91.1658 H 0.0 **** 0.0
47653 H 65.992 38.2181 92.2325 H 0.0 **** 0.0
47654 H 65.0776 39.0837 93.4556 H 0.0 **** 0.0
47655 H 67.448 38.597 94.0787 H 0.0 **** 0.0
47656 H 66.9696 40.3967 94.2689 H 0.0 **** 0.0
47657 C -11.9583 2.08861 24.5321 C 0.0 **** 0.0
47658 C -12.8329 2.01795 23.2881 C 0.0 **** 0.0
47659 C -12.0521 2.49028 21.9909 C 0.0 **** 0.0
47660 C -10.9222 3.43665 22.4206 C 0.0 **** 0.0
47661 C -11.3316 4.23554 23.6841 C 0.0 **** 0.0
47662 O -11.4754 3.39173 24.7952 O 0.0 **** 0.0
47663 C -10.4395 4.3715 21.287 C 0.0 **** 0.0
47664 C -10.8684 3.92896 19.8536 C 0.0 **** 0.0
47665 C -12.3834 3.8744 19.787 C 0.0 **** 0.0
47666 C -13.0446 3.15516 20.986 C 0.0 **** 0.0
47667 O -10.345 2.68642 19.4615 O 0.0 **** 0.0
47668 C -8.92121 2.63726 19.4612 C 0.0 **** 0.0
47669 C -8.38275 3.08349 20.803 C 0.0 **** 0.0
47670 C -8.90756 4.45839 21.3101 C 0.0 **** 0.0
47671 C -6.91863 3.03721 20.7487 C 0.0 **** 0.0
47672 C -6.16815 3.52089 19.5676 C 0.0 **** 0.0
47673 C -6.71529 3.04903 18.2726 C 0.0 **** 0.0
47674 C -8.20526 3.31254 18.2481 C 0.0 **** 0.0
47675 C -5.98345 3.8603 17.1543 C 0.0 **** 0.0
47676 C -4.45857 3.68155 17.2072 C 0.0 **** 0.0
47677 C -3.95191 4.06071 18.5922 C 0.0 **** 0.0
47678 C -4.66825 3.27877 19.7112 C 0.0 **** 0.0
47679 C -4.16504 3.53519 21.0979 C 0.0 **** 0.0
47680 C -4.84758 2.61236 22.1147 C 0.0 **** 0.0
47681 C -6.33495 2.6757 21.9612 C 0.0 **** 0.0
47682 O -2.53643 4.12502 18.7507 O 0.0 **** 0.0
47683 C -1.81836 3.91362 17.5416 C 0.0 **** 0.0
47684 C -2.28948 4.79337 16.344 C 0.0 **** 0.0
47685 C -3.83773 4.63249 16.1401 C 0.0 **** 0.0
47686 C -8.64047 2.90966 16.8594 C 0.0 **** 0.0
47687 C -8.10728 3.80367 15.8026 C 0.0 **** 0.0
47688 C -6.56286 3.47355 15.7676 C 0.0 **** 0.0
47689 C -8.68003 3.65639 14.4076 C 0.0 **** 0.0
47690 C -9.16228 2.46251 14.048 C 0.0 **** 0.0
47691 C -9.18973 1.26751 14.9955 C 0.0 **** 0.0
47692 C -8.93276 1.65761 16.4801 C 0.0 **** 0.0
47693 C -9.55194 2.25714 12.6046 C 0.0 **** 0.0
47694 C -8.68321 3.10524 11.6711 C 0.0 **** 0.0
47695 C -8.6685 4.5298 12.1086 C 0.0 **** 0.0
47696 C -8.69126 4.78388 13.4418 C 0.0 **** 0.0
47697 C -8.66381 6.20477 13.9684 C 0.0 **** 0.0
47698 C -9.00617 7.22108 12.8389 C 0.0 **** 0.0
47699 C -8.09413 6.98708 11.6375 C 0.0 **** 0.0
47700 C -8.32369 5.57086 11.0905 C 0.0 **** 0.0
47701 C -4.2554 4.14461 14.7955 C 0.0 **** 0.0
47702 C -5.75208 4.22451 14.6715 C 0.0 **** 0.0
47703 C -1.51698 4.42159 15.0498 C 0.0 **** 0.0
47704 C -1.93459 5.32659 13.8895 C 0.0 **** 0.0
47705 S -3.70262 5.21983 13.4733 S 0.0 **** 0.0
47706 C -1.19624 4.93125 12.59 C 0.0 **** 0.0
47707 C 0.295286 4.86426 12.7514 C 0.0 **** 0.0
47708 C 0.702145 3.99068 13.9345 C 0.0 **** 0.0
47709 C 0.0265293 4.48456 15.2393 C 0.0 **** 0.0
47710 C 2.21953 3.87564 14.0757 C 0.0 **** 0.0
47711 C 2.88101 3.45755 12.7661 C 0.0 **** 0.0
47712 C 2.57364 4.57806 11.7668 C 0.0 **** 0.0
47713 C 1.05209 4.49123 11.4804 C 0.0 **** 0.0
47714 C 3.39726 4.58847 10.4902 C 0.0 **** 0.0
47715 C 4.93322 4.26534 10.6375 C 0.0 **** 0.0
47716 C 5.12065 2.97884 11.5598 C 0.0 **** 0.0
47717 C 4.40437 3.19582 12.916 C 0.0 **** 0.0
47718 C 0.434742 3.61732 16.4618 C 0.0 **** 0.0
47719 C -0.288109 4.12318 17.7398 C 0.0 **** 0.0
47720 C 2.65256 3.03426 15.252 C 0.0 **** 0.0
47721 C 1.99375 3.46061 16.5945 C 0.0 **** 0.0
47722 C 4.71687 2.24589 14.0553 C 0.0 **** 0.0
47723 C 4.17969 2.97821 15.3066 C 0.0 **** 0.0
47724 C 6.60372 2.60856 11.7642 C 0.0 **** 0.0
47725 C 6.66444 1.46466 12.775 C 0.0 **** 0.0
47726 C 6.20824 2.06038 14.112 C 0.0 **** 0.0
47727 O 5.39576 3.98155 9.31651 O 0.0 **** 0.0
47728 C 5.37555 5.12275 8.44495 C 0.0 **** 0.0
47729 C 4.52095 6.31174 8.93732 C 0.0 **** 0.0
47730 C 3.22803 5.8784 9.6299 C 0.0 **** 0.0
47731 C 4.3239 7.4322 7.848 C 0.0 **** 0.0
47732 C 5.20247 7.23218 6.60134 C 0.0 **** 0.0
47733 C 5.05586 5.79457 5.99185 C 0.0 **** 0.0
47734 C 4.96576 4.64059 7.07611 C 0.0 **** 0.0
47735 C 5.75526 3.41116 6.63002 C 0.0 **** 0.0
47736 C 5.44338 3.13885 5.14559 C 0.0 **** 0.0
47737 C 5.79857 4.29261 4.22032 C 0.0 **** 0.0
47738 N 6.04062 5.53406 4.93498 N 0.0 **** 0.0
47739 C 2.47874 2.59513 17.8107 C 0.0 **** 0.0
47740 C 3.72683 1.75176 17.4707 C 0.0 **** 0.0
47741 C 4.75728 2.45139 16.6258 C 0.0 **** 0.0
47742 O 4.25595 1.50253 18.748 O 0.0 **** 0.0
47743 C 3.45456 0.497685 19.3367 C 0.0 **** 0.0
47744 C 1.99885 1.06892 19.4675 C 0.0 **** 0.0
47745 O 1.51477 1.66488 18.2651 O 0.0 **** 0.0
47746 C 1.89136 2.01608 20.6851 C 0.0 **** 0.0
47747 C 3.21799 2.44293 21.33 C 0.0 **** 0.0
47748 C 4.13828 1.3214 21.6711 C 0.0 **** 0.0
47749 C 4.01147 0.0801315 20.7223 C 0.0 **** 0.0
47750 C 6.59213 1.16328 15.316 C 0.0 **** 0.0
47751 C 6.17472 1.79315 16.5955 C 0.0 **** 0.0
47752 C 8.03531 0.775263 12.8109 C 0.0 **** 0.0
47753 C 8.85445 1.10522 14.0795 C 0.0 **** 0.0
47754 C 8.10925 0.730411 15.3578 C 0.0 **** 0.0
47755 C 8.78579 0.632539 11.4925 C 0.0 **** 0.0
47756 C 8.70568 1.92281 10.6979 C 0.0 **** 0.0
47757 C 7.24473 2.252 10.4578 C 0.0 **** 0.0
47758 O 10.2361 0.693033 14.0607 O 0.0 **** 0.0
47759 C 10.4717 -0.348585 13.1346 C 0.0 **** 0.0
47760 C 10.204 0.0914121 11.7029 C 0.0 **** 0.0
47761 C 9.52348 1.81627 9.41722 C 0.0 **** 0.0
47762 C 10.9648 1.2452 9.63222 C 0.0 **** 0.0
47763 C 11.2647 1.0466 11.1372 C 0.0 **** 0.0
47764 C 12.0654 2.00828 8.92942 C 0.0 **** 0.0
47765 C 11.6177 2.31401 7.43526 C 0.0 **** 0.0
47766 C 10.2355 2.99075 7.31966 C 0.0 **** 0.0
47767 C 9.54138 3.18042 8.65351 C 0.0 **** 0.0
47768 C 12.7277 0.812463 11.4475 C 0.0 **** 0.0
47769 C 13.0033 0.162275 12.8514 C 0.0 **** 0.0
47770 C 11.9092 -0.915999 13.16 C 0.0 **** 0.0
47771 C 13.4195 1.15507 9.12824 C 0.0 **** 0.0
47772 C 13.4348 0.155416 10.2894 C 0.0 **** 0.0
47773 C -8.7972 8.669 13.362 C 0.0 **** 0.0
47774 C -7.43019 8.89569 13.9993 C 0.0 **** 0.0
47775 C -9.1317 9.7422 12.2963 C 0.0 **** 0.0
47776 O 2.75615 6.91971 10.4452 O 0.0 **** 0.0
47777 C 12.231 -1.76103 14.4237 C 0.0 **** 0.0
47778 C 13.6661 -2.26924 14.4483 C 0.0 **** 0.0
47779 C 14.6145 -1.09373 14.2538 C 0.0 **** 0.0
47780 C 14.4309 -0.389912 12.927 C 0.0 **** 0.0
47781 C 14.9632 -1.19313 11.7218 C 0.0 **** 0.0
47782 C 16.4696 -1.4083 11.9714 C 0.0 **** 0.0
47783 C 16.7629 -2.08787 13.3208 C 0.0 **** 0.0
47784 C 16.0752 -1.38157 14.4755 C 0.0 **** 0.0
47785 C 18.2466 -2.08215 13.5022 C 0.0 **** 0.0
47786 C 18.9094 -2.91937 12.3729 C 0.0 **** 0.0
47787 C 18.605 -2.37726 10.9631 C 0.0 **** 0.0
47788 C 17.0611 -2.19274 10.8196 C 0.0 **** 0.0
47789 C 16.7917 -1.55206 9.49231 C 0.0 **** 0.0
47790 C 15.3302 -1.15383 9.3285 C 0.0 **** 0.0
47791 C 14.8935 -0.284124 10.5267 C 0.0 **** 0.0
47792 C 17.184 -2.50138 8.36351 C 0.0 **** 0.0
47793 C 18.6394 -2.9146 8.47766 C 0.0 **** 0.0
47794 C 19.0332 -3.34184 9.88424 C 0.0 **** 0.0
47795 C 13.8598 0.401654 7.89196 C 0.0 **** 0.0
47796 C 15.2167 -0.325772 8.04509 C 0.0 **** 0.0
47797 C 16.8793 -1.90232 6.95959 C 0.0 **** 0.0
47798 C 15.5113 -1.24712 6.86081 C 0.0 **** 0.0
47799 C 15.321 -0.66098 5.45724 C 0.0 **** 0.0
47800 C 15.4399 -1.65649 4.33303 C 0.0 **** 0.0
47801 C 16.8245 -2.36708 4.38617 C 0.0 **** 0.0
47802 C 17.0326 -2.85884 5.78276 C 0.0 **** 0.0
47803 O 17.2119 -4.03572 5.98316 O 0.0 **** 0.0
47804 H -11.1132 1.33916 24.4336 H 0.0 **** 0.0
47805 H -12.6055 1.70547 25.3715 H 0.0 **** 0.0
47806 H -13.3203 1.00249 23.0755 H 0.0 **** 0.0
47807 H -13.6367 2.73581 23.5404 H 0.0 **** 0.0
47808 H -11.4844 1.60995 21.5261 H 0.0 **** 0.0
47809 H -10.1009 2.84089 22.8389 H 0.0 **** 0.0
47810 H -12.2805 4.75452 23.4597 H 0.0 **** 0.0
47811 H -10.5382 4.94882 23.921 H 0.0 **** 0.0
47812 H -10.8725 5.40417 21.4358 H 0.0 **** 0.0
47813 H -10.5754 4.6469 19.1033 H 0.0 **** 0.0
47814 H -12.6802 3.27987 18.839 H 0.0 **** 0.0
47815 H -12.7378 4.93141 19.7088 H 0.0 **** 0.0
47816 H -13.763 2.41954 20.6406 H 0.0 **** 0.0
47817 H -13.7341 3.89905 21.4575 H 0.0 **** 0.0
47818 H -8.62023 1.57837 19.457 H 0.0 **** 0.0
47819 H -8.76119 2.25627 21.4553 H 0.0 **** 0.0
47820 H -8.50647 5.25458 20.6526 H 0.0 **** 0.0
47821 H -8.58503 4.74197 22.3708 H 0.0 **** 0.0
47822 H -8.401 4.37837 18.3601 H 0.0 **** 0.0
47823 H -3.08581 3.35141 21.1854 H 0.0 **** 0.0
47824 H -4.35972 4.59567 21.3121 H 0.0 **** 0.0
47825 H -4.51694 2.96494 23.0902 H 0.0 **** 0.0
47826 H -4.52038 1.57001 22.0537 H 0.0 **** 0.0
47827 H -6.97285 2.43421 22.7761 H 0.0 **** 0.0
47828 H -8.29983 4.85829 16.1164 H 0.0 **** 0.0
47829 H -8.42083 0.544287 14.7501 H 0.0 **** 0.0
47830 H -10.2252 0.804635 14.8918 H 0.0 **** 0.0
47831 H -9.05987 0.872103 17.1981 H 0.0 **** 0.0
47832 H -9.45761 1.17171 12.2951 H 0.0 **** 0.0
47833 H -10.6174 2.46076 12.5056 H 0.0 **** 0.0
47834 H -9.02551 2.94984 10.601 H 0.0 **** 0.0
47835 H -7.60883 2.68898 11.7569 H 0.0 **** 0.0
47836 H -9.42979 6.35624 14.7646 H 0.0 **** 0.0
47837 H -7.67824 6.41891 14.3862 H 0.0 **** 0.0
47838 H -10.0732 7.08982 12.5714 H 0.0 **** 0.0
47839 H -7.05891 7.12895 11.8493 H 0.0 **** 0.0
47840 H -8.34466 7.71491 10.8166 H 0.0 **** 0.0
47841 H -7.42569 5.28851 10.5993 H 0.0 **** 0.0
47842 H -9.10138 5.61267 10.3181 H 0.0 **** 0.0
47843 H -6.07086 3.91597 13.6636 H 0.0 **** 0.0
47844 H -1.47103 5.62355 11.7306 H 0.0 **** 0.0
47845 H 0.678786 5.16846 10.689 H 0.0 **** 0.0
47846 H 0.0176844 3.53712 18.6466 H 0.0 **** 0.0
47847 H 6.42364 5.47445 8.3632 H 0.0 **** 0.0
47848 H 5.11412 6.78119 9.70798 H 0.0 **** 0.0
47849 H 2.4479 5.66401 8.92898 H 0.0 **** 0.0
47850 H 3.27635 7.43786 7.49198 H 0.0 **** 0.0
47851 H 4.49059 8.44466 8.225 H 0.0 **** 0.0
47852 H 6.26139 7.42806 6.89427 H 0.0 **** 0.0
47853 H 4.92852 7.97195 5.80878 H 0.0 **** 0.0
47854 H 4.102 5.88316 5.4616 H 0.0 **** 0.0
47855 H 3.88087 4.36373 7.12724 H 0.0 **** 0.0
47856 H 6.85119 3.58454 6.72765 H 0.0 **** 0.0
47857 H 5.56075 2.53265 7.26378 H 0.0 **** 0.0
47858 H 4.39527 2.82106 4.97857 H 0.0 **** 0.0
47859 H 6.06834 2.30488 4.8068 H 0.0 **** 0.0
47860 H 4.98545 4.47932 3.57476 H 0.0 **** 0.0
47861 H 6.71599 4.07676 3.65214 H 0.0 **** 0.0
47862 H 6.96579 5.46394 5.4281 H 0.0 **** 0.0
47863 H 3.46575 -0.394174 18.6875 H 0.0 **** 0.0
47864 H 1.3161 0.217501 19.6765 H 0.0 **** 0.0
47865 H 1.27024 2.88769 20.3491 H 0.0 **** 0.0
47866 H 1.30544 1.45243 21.4138 H 0.0 **** 0.0
47867 H 3.06561 3.02791 22.2309 H 0.0 **** 0.0
47868 H 3.71884 3.09678 20.6021 H 0.0 **** 0.0
47869 H 3.94484 0.976519 22.6693 H 0.0 **** 0.0
47870 H 5.16694 1.62362 21.644 H 0.0 **** 0.0
47871 H 3.24686 -0.614176 21.162 H 0.0 **** 0.0
47872 H 4.9541 -0.499918 20.6527 H 0.0 **** 0.0
47873 H 6.88011 2.4799 17.029 H 0.0 **** 0.0
47874 H 8.69486 1.11406 16.2312 H 0.0 **** 0.0
47875 H 6.72157 1.35096 10.0076 H 0.0 **** 0.0
47876 H 8.95526 1.0553 8.77984 H 0.0 **** 0.0
47877 H 10.9475 0.246135 9.1783 H 0.0 **** 0.0
47878 H 12.2283 2.97051 9.47786 H 0.0 **** 0.0
47879 H 11.4975 1.34135 6.87296 H 0.0 **** 0.0
47880 H 12.408 2.9419 6.91516 H 0.0 **** 0.0
47881 H 9.56556 2.41959 6.62403 H 0.0 **** 0.0
47882 H 10.4391 3.98679 6.79548 H 0.0 **** 0.0
47883 H 8.5054 3.55216 8.48027 H 0.0 **** 0.0
47884 H 10.0727 3.93966 9.30585 H 0.0 **** 0.0
47885 H -9.5888 8.88192 14.1387 H 0.0 **** 0.0
47886 H -7.31939 9.97965 14.2477 H 0.0 **** 0.0
47887 H -6.56388 8.59158 13.4223 H 0.0 **** 0.0
47888 H -7.33999 8.37026 14.9847 H 0.0 **** 0.0
47889 H -10.1994 9.5791 11.9149 H 0.0 **** 0.0
47890 H -8.4563 9.71182 11.4067 H 0.0 **** 0.0
47891 H -9.08696 10.7942 12.6579 H 0.0 **** 0.0
47892 H 2.4345 7.61471 9.83996 H 0.0 **** 0.0
47893 H 11.5111 -2.69499 14.5199 H 0.0 **** 0.0
47894 H 13.8802 -2.8034 15.4222 H 0.0 **** 0.0
47895 H 16.2153 -1.88174 15.4384 H 0.0 **** 0.0
47896 H 18.6955 -1.03941 13.4364 H 0.0 **** 0.0
47897 H 18.85 -4.00743 12.4424 H 0.0 **** 0.0
47898 H 19.2514 -2.07872 8.14344 H 0.0 **** 0.0
47899 H 20.0581 -3.6165 9.97558 H 0.0 **** 0.0
47900 H 14.091 1.21507 7.10846 H 0.0 **** 0.0
47901 H 14.3417 -0.2082 5.33666 H 0.0 **** 0.0
47902 H 16.0038 0.186507 5.41146 H 0.0 **** 0.0
47903 H 15.2178 -1.17792 3.32682 H 0.0 **** 0.0
47904 H 14.6318 -2.43166 4.49153 H 0.0 **** 0.0
47905 H 17.6619 -1.68969 4.06643 H 0.0 **** 0.0
47906 H 16.7553 -3.2344 3.66908 H 0.0 **** 0.0
47907 C 70.236 8.80675 94.1288 C 0.0 **** 0.0
47908 C 69.1045 7.8059 94.5528 C 0.0 **** 0.0
47909 C 69.6368 6.36944 94.7422 C 0.0 **** 0.0
47910 C 70.7648 5.91016 93.7363 C 0.0 **** 0.0
47911 C 71.4571 7.1673 93.1291 C 0.0 **** 0.0
47912 O 71.5077 8.17668 94.0671 O 0.0 **** 0.0
47913 C 70.1654 5.04482 92.5807 C 0.0 **** 0.0
47914 C 69.2385 3.88406 93.0542 C 0.0 **** 0.0
47915 C 68.704 4.05121 94.5015 C 0.0 **** 0.0
47916 C 68.4062 5.46013 94.824 C 0.0 **** 0.0
47917 O 69.7885 2.57987 92.9766 O 0.0 **** 0.0
47918 C 70.2489 2.31017 91.643 C 0.0 **** 0.0
47919 C 71.5098 3.09999 91.3829 C 0.0 **** 0.0
47920 C 71.1376 4.6103 91.4365 C 0.0 **** 0.0
47921 C 72.0634 2.73593 90.012 C 0.0 **** 0.0
47922 C 71.1883 2.85522 88.8804 C 0.0 **** 0.0
47923 C 69.8093 2.19113 89.1473 C 0.0 **** 0.0
47924 C 69.1911 2.56163 90.5275 C 0.0 **** 0.0
47925 C 68.825 2.61584 88.0322 C 0.0 **** 0.0
47926 C 69.4183 2.30482 86.6457 C 0.0 **** 0.0
47927 C 70.8299 2.89769 86.3874 C 0.0 **** 0.0
47928 C 71.7952 2.41636 87.5365 C 0.0 **** 0.0
47929 C 73.2098 2.93282 87.2858 C 0.0 **** 0.0
47930 C 74.1111 2.46294 88.4404 C 0.0 **** 0.0
47931 C 73.456 2.60319 89.8232 C 0.0 **** 0.0
47932 O 71.289 2.47295 85.114 O 0.0 **** 0.0
47933 C 70.5241 3.07465 84.1066 C 0.0 **** 0.0
47934 C 69.1015 2.56091 84.2183 C 0.0 **** 0.0
47935 C 68.5141 2.89479 85.582 C 0.0 **** 0.0
47936 C 67.8836 1.84425 90.6144 C 0.0 **** 0.0
47937 C 66.8496 2.2293 89.5824 C 0.0 **** 0.0
47938 C 67.4913 1.93872 88.1881 C 0.0 **** 0.0
47939 C 65.4987 1.50012 89.7845 C 0.0 **** 0.0
47940 C 65.4744 0.275235 90.3533 C 0.0 **** 0.0
47941 C 66.6602 -0.226047 91.1144 C 0.0 **** 0.0
47942 C 67.6691 0.836542 91.4684 C 0.0 **** 0.0
47943 C 64.1591 -0.455565 90.5119 C 0.0 **** 0.0
47944 C 63.1771 -0.140213 89.3739 C 0.0 **** 0.0
47945 C 63.2033 1.3004 88.9967 C 0.0 **** 0.0
47946 C 64.2359 2.09731 89.2743 C 0.0 **** 0.0
47947 C 64.106 3.65056 89.0461 C 0.0 **** 0.0
47948 C 62.7092 4.17352 88.5426 C 0.0 **** 0.0
47949 C 61.9874 3.04203 87.7155 C 0.0 **** 0.0
47950 C 61.9028 1.81148 88.5511 C 0.0 **** 0.0
47951 C 67.1054 2.26788 85.7044 C 0.0 **** 0.0
47952 C 66.5273 2.37399 87.0823 C 0.0 **** 0.0
47953 C 68.3005 3.11105 83.0263 C 0.0 **** 0.0
47954 C 66.8433 2.63902 83.1059 C 0.0 **** 0.0
47955 S 65.9662 3.13025 84.5789 S 0.0 **** 0.0
47956 C 65.9963 3.27454 81.9677 C 0.0 **** 0.0
47957 C 66.6256 2.92839 80.6419 C 0.0 **** 0.0
47958 C 68.1078 3.25422 80.4876 C 0.0 **** 0.0
47959 C 68.9307 2.76084 81.6647 C 0.0 **** 0.0
47960 C 68.6785 2.60355 79.1974 C 0.0 **** 0.0
47961 C 67.6864 2.60661 78.0305 C 0.0 **** 0.0
47962 C 66.6512 3.73744 78.144 C 0.0 **** 0.0
47963 C 65.8336 3.50855 79.4416 C 0.0 **** 0.0
47964 C 65.6775 3.6955 76.9394 C 0.0 **** 0.0
47965 C 66.366 3.62713 75.5779 C 0.0 **** 0.0
47966 C 67.3602 2.38962 75.5194 C 0.0 **** 0.0
47967 C 68.355 2.32339 76.6854 C 0.0 **** 0.0
47968 C 70.324 3.38589 81.5459 C 0.0 **** 0.0
47969 C 71.1316 2.77801 82.709 C 0.0 **** 0.0
47970 C 69.9914 3.36639 78.9832 C 0.0 **** 0.0
47971 C 70.9635 3.18391 80.1353 C 0.0 **** 0.0
47972 C 69.6479 3.09762 76.4474 C 0.0 **** 0.0
47973 C 70.6227 2.90089 77.6378 C 0.0 **** 0.0
47974 C 68.0366 2.09415 74.1438 C 0.0 **** 0.0
47975 C 69.4234 2.69518 73.9843 C 0.0 **** 0.0
47976 C 70.327 2.48276 75.1958 C 0.0 **** 0.0
47977 O 65.3149 3.43028 74.6282 O 0.0 **** 0.0
47978 C 64.7536 4.69307 74.3049 C 0.0 **** 0.0
47979 C 64.6117 5.66322 75.558 C 0.0 **** 0.0
47980 C 64.5496 4.78618 76.8676 C 0.0 **** 0.0
47981 C 63.4288 6.65936 75.5139 C 0.0 **** 0.0
47982 C 63.0616 7.03558 74.0926 C 0.0 **** 0.0
47983 C 62.6286 5.80603 73.2431 C 0.0 **** 0.0
47984 C 63.4009 4.47576 73.6399 C 0.0 **** 0.0
47985 C 63.5548 3.4966 72.4791 C 0.0 **** 0.0
47986 C 62.2862 3.53556 71.6274 C 0.0 **** 0.0
47987 C 62.012 4.96729 71.0986 C 0.0 **** 0.0
47988 N 62.7671 6.06468 71.7976 N 0.0 **** 0.0
47989 C 72.1473 4.12131 79.7988 C 0.0 **** 0.0
47990 C 72.8881 3.6841 78.4907 C 0.0 **** 0.0
47991 C 71.9261 3.65827 77.31 C 0.0 **** 0.0
47992 O 73.9305 4.55919 78.1704 O 0.0 **** 0.0
47993 C 74.8384 4.64393 79.1948 C 0.0 **** 0.0
47994 C 74.1909 5.10963 80.4722 C 0.0 **** 0.0
47995 O 73.0911 4.23397 80.8331 O 0.0 **** 0.0
47996 C 73.6968 6.57304 80.2459 C 0.0 **** 0.0
47997 C 74.6506 7.53262 79.5736 C 0.0 **** 0.0
47998 C 76.0477 6.92805 79.4882 C 0.0 **** 0.0
47999 C 76.0388 5.57467 78.7917 C 0.0 **** 0.0
48000 C 71.7557 2.98742 74.9227 C 0.0 **** 0.0
48001 C 72.611 2.93939 76.1742 C 0.0 **** 0.0
48002 C 70.0666 1.97383 72.8127 C 0.0 **** 0.0
48003 C 71.5678 2.14597 72.5325 C 0.0 **** 0.0
48004 C 72.3831 2.06081 73.866 C 0.0 **** 0.0
48005 C 69.3535 2.3491 71.5045 C 0.0 **** 0.0
48006 C 67.8795 2.06693 71.5643 C 0.0 **** 0.0
48007 C 67.1772 2.32301 72.9035 C 0.0 **** 0.0
48008 O 71.9906 1.13022 71.6238 O 0.0 **** 0.0
48009 C 71.504 1.54462 70.3329 C 0.0 **** 0.0
48010 C 69.9282 1.524 70.3358 C 0.0 **** 0.0
48011 C 67.1629 2.61009 70.3077 C 0.0 **** 0.0
48012 C 67.8975 2.23349 68.9442 C 0.0 **** 0.0
48013 C 69.4712 2.15196 69.0609 C 0.0 **** 0.0
48014 C 67.7215 3.27127 67.7894 C 0.0 **** 0.0
48015 C 66.3042 3.80489 67.7565 C 0.0 **** 0.0
48016 C 65.926 4.49438 69.0788 C 0.0 **** 0.0
48017 C 66.8579 4.11976 70.3053 C 0.0 **** 0.0
48018 C 70.0014 1.42444 67.8498 C 0.0 **** 0.0
48019 C 71.5253 1.16761 67.8768 C 0.0 **** 0.0
48020 C 71.9689 0.592413 69.2163 C 0.0 **** 0.0
48021 C 68.2873 2.70953 66.399 C 0.0 **** 0.0
48022 C 69.6684 2.13771 66.4835 C 0.0 **** 0.0
48023 C 62.8957 5.55731 87.8207 C 0.0 **** 0.0
48024 C 63.1654 5.32711 86.3466 C 0.0 **** 0.0
48025 C 61.6843 6.52912 87.9345 C 0.0 **** 0.0
48026 O 64.5277 5.63512 77.9785 O 0.0 **** 0.0
48027 C 73.4853 0.385597 69.2092 C 0.0 **** 0.0
48028 C 74.0488 -0.352589 67.9832 C 0.0 **** 0.0
48029 C 73.4862 0.0985505 66.6356 C 0.0 **** 0.0
48030 C 71.9554 0.331243 66.6891 C 0.0 **** 0.0
48031 C 71.5176 0.901098 65.3592 C 0.0 **** 0.0
48032 C 71.8257 -0.121282 64.2487 C 0.0 **** 0.0
48033 C 73.3091 -0.49736 64.1397 C 0.0 **** 0.0
48034 C 73.8733 -0.915266 65.5432 C 0.0 **** 0.0
48035 C 73.4415 -1.65655 63.1738 C 0.0 **** 0.0
48036 C 73.0485 -1.11712 61.7762 C 0.0 **** 0.0
48037 C 71.5971 -0.660488 61.7929 C 0.0 **** 0.0
48038 C 71.3323 0.373913 62.8998 C 0.0 **** 0.0
48039 C 69.8459 0.683155 62.9431 C 0.0 **** 0.0
48040 C 69.4409 1.66213 64.0225 C 0.0 **** 0.0
48041 C 69.9551 1.12514 65.3776 C 0.0 **** 0.0
48042 C 69.2328 1.02776 61.5415 C 0.0 **** 0.0
48043 C 70.2457 0.990033 60.3629 C 0.0 **** 0.0
48044 C 71.1591 -0.240005 60.4111 C 0.0 **** 0.0
48045 C 67.2994 2.03212 65.4477 C 0.0 **** 0.0
48046 C 67.9223 1.68969 64.0561 C 0.0 **** 0.0
48047 C 68.297 2.26326 61.5305 C 0.0 **** 0.0
48048 C 67.2971 2.34549 62.7837 C 0.0 **** 0.0
48049 C 65.9161 1.72973 62.4634 C 0.0 **** 0.0
48050 C 65.2945 2.24205 61.1357 C 0.0 **** 0.0
48051 C 66.1892 3.04135 60.1798 C 0.0 **** 0.0
48052 C 67.6402 2.61272 60.1858 C 0.0 **** 0.0
48053 O 68.2963 2.87761 59.1785 O 0.0 **** 0.0
48054 H 70.3666 9.57128 94.9074 H 0.0 **** 0.0
48055 H 69.954 9.39429 93.2143 H 0.0 **** 0.0
48056 H 68.6136 8.18822 95.4851 H 0.0 **** 0.0
48057 H 68.3523 7.8733 93.7212 H 0.0 **** 0.0
48058 H 70.1432 6.38069 95.7249 H 0.0 **** 0.0
48059 H 71.4914 5.25811 94.2519 H 0.0 **** 0.0
48060 H 71.0456 7.5449 92.1855 H 0.0 **** 0.0
48061 H 72.5099 6.9393 92.867 H 0.0 **** 0.0
48062 H 69.4489 5.74327 92.0328 H 0.0 **** 0.0
48063 H 68.298 3.88865 92.4647 H 0.0 **** 0.0
48064 H 69.4215 3.61377 95.1801 H 0.0 **** 0.0
48065 H 67.7079 3.49839 94.6549 H 0.0 **** 0.0
48066 H 67.9255 5.48796 95.8434 H 0.0 **** 0.0
48067 H 67.7097 5.7551 94.0696 H 0.0 **** 0.0
48068 H 70.4867 1.21734 91.5592 H 0.0 **** 0.0
48069 H 72.1638 2.86506 92.2012 H 0.0 **** 0.0
48070 H 70.7868 4.9471 90.4508 H 0.0 **** 0.0
48071 H 72.0966 5.10338 91.639 H 0.0 **** 0.0
48072 H 68.9516 3.64841 90.4853 H 0.0 **** 0.0
48073 H 73.6212 2.51154 86.3195 H 0.0 **** 0.0
48074 H 73.2164 4.06635 87.2081 H 0.0 **** 0.0
48075 H 75.0326 3.12477 88.4612 H 0.0 **** 0.0
48076 H 74.4645 1.42626 88.3151 H 0.0 **** 0.0
48077 H 74.1008 2.65318 90.6899 H 0.0 **** 0.0
48078 H 66.6473 3.30861 89.7036 H 0.0 **** 0.0
48079 H 67.1906 -0.987405 90.4755 H 0.0 **** 0.0
48080 H 66.3114 -0.736733 92.0379 H 0.0 **** 0.0
48081 H 68.3465 0.627357 92.2415 H 0.0 **** 0.0
48082 H 64.3938 -1.53834 90.4865 H 0.0 **** 0.0
48083 H 63.7297 -0.223635 91.503 H 0.0 **** 0.0
48084 H 62.1455 -0.387471 89.7305 H 0.0 **** 0.0
48085 H 63.4099 -0.793665 88.4964 H 0.0 **** 0.0
48086 H 64.3166 4.13331 90.0164 H 0.0 **** 0.0
48087 H 64.8732 3.98139 88.3226 H 0.0 **** 0.0
48088 H 62.1059 4.33717 89.4498 H 0.0 **** 0.0
48089 H 62.5523 2.86871 86.8147 H 0.0 **** 0.0
48090 H 60.9342 3.35401 87.4973 H 0.0 **** 0.0
48091 H 61.373 1.03601 87.9731 H 0.0 **** 0.0
48092 H 61.2724 2.0471 89.4497 H 0.0 **** 0.0
48093 H 65.66 1.69388 87.1057 H 0.0 **** 0.0
48094 H 64.9429 2.88485 82.0523 H 0.0 **** 0.0
48095 H 65.4351 4.5116 79.7821 H 0.0 **** 0.0
48096 H 72.1969 3.04888 82.7073 H 0.0 **** 0.0
48097 H 65.3995 5.20591 73.5451 H 0.0 **** 0.0
48098 H 65.5283 6.25649 75.7005 H 0.0 **** 0.0
48099 H 63.6207 4.1852 76.875 H 0.0 **** 0.0
48100 H 62.5578 6.17823 75.9814 H 0.0 **** 0.0
48101 H 63.7102 7.56022 76.128 H 0.0 **** 0.0
48102 H 63.9303 7.51211 73.6489 H 0.0 **** 0.0
48103 H 62.2952 7.79964 73.9908 H 0.0 **** 0.0
48104 H 61.5543 5.6742 73.483 H 0.0 **** 0.0
48105 H 62.7379 3.96778 74.3826 H 0.0 **** 0.0
48106 H 64.3719 3.7713 71.8319 H 0.0 **** 0.0
48107 H 63.6583 2.48742 72.8553 H 0.0 **** 0.0
48108 H 61.4317 3.16294 72.2323 H 0.0 **** 0.0
48109 H 62.4814 2.81416 70.809 H 0.0 **** 0.0
48110 H 60.8927 5.17202 71.0977 H 0.0 **** 0.0
48111 H 62.3184 4.98673 70.0474 H 0.0 **** 0.0
48112 H 63.8144 5.90784 71.5767 H 0.0 **** 0.0
48113 H 75.2815 3.62321 79.396 H 0.0 **** 0.0
48114 H 74.933 5.11882 81.2794 H 0.0 **** 0.0
48115 H 72.7241 6.67499 79.6613 H 0.0 **** 0.0
48116 H 73.4354 7.02105 81.2414 H 0.0 **** 0.0
48117 H 74.7821 8.42605 80.1982 H 0.0 **** 0.0
48118 H 74.3093 7.76718 78.5781 H 0.0 **** 0.0
48119 H 76.5378 6.79703 80.4878 H 0.0 **** 0.0
48120 H 76.7343 7.54385 78.9089 H 0.0 **** 0.0
48121 H 76.9934 5.09269 79.1327 H 0.0 **** 0.0
48122 H 76.0508 5.71685 77.7079 H 0.0 **** 0.0
48123 H 73.6561 3.33838 76.0655 H 0.0 **** 0.0
48124 H 73.4354 2.30525 73.6457 H 0.0 **** 0.0
48125 H 66.2048 1.74237 72.9323 H 0.0 **** 0.0
48126 H 66.2028 2.11836 70.2969 H 0.0 **** 0.0
48127 H 67.5016 1.30619 68.5435 H 0.0 **** 0.0
48128 H 68.3554 4.18007 67.9875 H 0.0 **** 0.0
48129 H 65.5992 2.95204 67.66 H 0.0 **** 0.0
48130 H 66.1602 4.48327 66.8905 H 0.0 **** 0.0
48131 H 64.8145 4.38856 69.3759 H 0.0 **** 0.0
48132 H 66.0681 5.59333 68.9876 H 0.0 **** 0.0
48133 H 66.3356 4.46804 71.2259 H 0.0 **** 0.0
48134 H 67.8463 4.6486 70.2829 H 0.0 **** 0.0
48135 H 63.7429 6.05137 88.3124 H 0.0 **** 0.0
48136 H 63.4363 6.29205 85.8115 H 0.0 **** 0.0
48137 H 62.3342 4.92491 85.7343 H 0.0 **** 0.0
48138 H 64.0147 4.60991 86.2308 H 0.0 **** 0.0
48139 H 61.6276 6.93103 88.9701 H 0.0 **** 0.0
48140 H 61.8536 7.38822 87.2115 H 0.0 **** 0.0
48141 H 60.7034 6.0488 87.6388 H 0.0 **** 0.0
48142 H 63.6093 6.02819 78.0467 H 0.0 **** 0.0
48143 H 73.8802 -0.0521084 70.1463 H 0.0 **** 0.0
48144 H 75.1421 -0.346458 67.9749 H 0.0 **** 0.0
48145 H 75.0021 -1.00075 65.5614 H 0.0 **** 0.0
48146 H 74.5189 -2.00652 63.1625 H 0.0 **** 0.0
48147 H 73.1687 -1.89903 61.0219 H 0.0 **** 0.0
48148 H 70.7952 1.9403 60.2475 H 0.0 **** 0.0
48149 H 70.6817 -1.13528 59.8957 H 0.0 **** 0.0
48150 H 66.4625 2.73815 65.2706 H 0.0 **** 0.0
48151 H 66.1401 0.599512 62.359 H 0.0 **** 0.0
48152 H 65.2528 1.99789 63.3549 H 0.0 **** 0.0
48153 H 64.3997 2.85524 61.3605 H 0.0 **** 0.0
48154 H 65.0785 1.35848 60.5777 H 0.0 **** 0.0
48155 H 66.1247 4.13989 60.5472 H 0.0 **** 0.0
48156 H 65.8231 2.98818 59.127 H 0.0 **** 0.0
48157 C 92.9205 109.215 86.1129 C 0.0 **** 0.0
48158 C 91.6017 108.607 86.5917 C 0.0 **** 0.0
48159 C 91.3844 108.99 88.0782 C 0.0 **** 0.0
48160 C 92.731 108.892 88.9148 C 0.0 **** 0.0
48161 C 93.8974 109.664 88.1511 C 0.0 **** 0.0
48162 O 93.4059 110.225 86.9592 O 0.0 **** 0.0
48163 C 93.1253 107.369 89.1283 C 0.0 **** 0.0
48164 C 91.9277 106.498 89.5369 C 0.0 **** 0.0
48165 C 90.6138 107.283 89.87 C 0.0 **** 0.0
48166 C 90.2052 108.203 88.7226 C 0.0 **** 0.0
48167 O 92.1346 105.571 90.5487 O 0.0 **** 0.0
48168 C 93.3321 104.878 90.3731 C 0.0 **** 0.0
48169 C 94.5769 105.775 90.4963 C 0.0 **** 0.0
48170 C 94.2851 107.24 90.1661 C 0.0 **** 0.0
48171 C 95.834 105.317 89.7709 C 0.0 **** 0.0
48172 C 95.814 104.294 88.7111 C 0.0 **** 0.0
48173 C 94.6322 103.307 88.8547 C 0.0 **** 0.0
48174 C 93.2882 104.043 89.0863 C 0.0 **** 0.0
48175 C 94.6226 102.396 87.6208 C 0.0 **** 0.0
48176 C 95.9194 101.577 87.6092 C 0.0 **** 0.0
48177 C 97.1257 102.47 87.5508 C 0.0 **** 0.0
48178 C 97.1762 103.608 88.5828 C 0.0 **** 0.0
48179 C 98.1284 104.717 88.1103 C 0.0 **** 0.0
48180 C 98.3186 105.729 89.2445 C 0.0 **** 0.0
48181 C 97.0443 105.946 90.0638 C 0.0 **** 0.0
48182 O 98.3976 101.776 87.4644 O 0.0 **** 0.0
48183 C 98.2133 100.337 87.4552 C 0.0 **** 0.0
48184 C 97.3755 99.9545 86.1932 C 0.0 **** 0.0
48185 C 96.0182 100.728 86.328 C 0.0 **** 0.0
48186 C 92.1077 103.044 88.9147 C 0.0 **** 0.0
48187 C 92.0497 102.334 87.5472 C 0.0 **** 0.0
48188 C 93.3688 101.462 87.546 C 0.0 **** 0.0
48189 C 90.8143 101.515 87.2966 C 0.0 **** 0.0
48190 C 90.0727 101.024 88.2879 C 0.0 **** 0.0
48191 C 90.185 101.555 89.7129 C 0.0 **** 0.0
48192 C 91.2472 102.651 89.8994 C 0.0 **** 0.0
48193 C 88.9031 100.194 87.966 C 0.0 **** 0.0
48194 C 89.113 99.274 86.7889 C 0.0 **** 0.0
48195 C 89.6989 100.016 85.6287 C 0.0 **** 0.0
48196 C 90.4085 101.161 85.8575 C 0.0 **** 0.0
48197 C 90.9438 102.01 84.7238 C 0.0 **** 0.0
48198 C 90.4391 101.536 83.3167 C 0.0 **** 0.0
48199 C 90.4594 100.003 83.2564 C 0.0 **** 0.0
48200 C 89.4536 99.4608 84.2416 C 0.0 **** 0.0
48201 C 94.7872 99.7933 86.2282 C 0.0 **** 0.0
48202 C 93.4862 100.564 86.3301 C 0.0 **** 0.0
48203 C 97.1889 98.4539 86.1629 C 0.0 **** 0.0
48204 C 96.3655 98.0381 84.9543 C 0.0 **** 0.0
48205 S 94.8307 98.921 84.6522 S 0.0 **** 0.0
48206 C 96.0685 96.5687 85.1159 C 0.0 **** 0.0
48207 C 97.3893 95.8063 85.0324 C 0.0 **** 0.0
48208 C 98.3523 96.1635 86.2128 C 0.0 **** 0.0
48209 C 98.5243 97.6836 86.1378 C 0.0 **** 0.0
48210 C 99.7083 95.5583 85.8816 C 0.0 **** 0.0
48211 C 99.5425 94.0021 85.6485 C 0.0 **** 0.0
48212 C 98.526 93.7055 84.5153 C 0.0 **** 0.0
48213 C 97.1942 94.3202 84.8037 C 0.0 **** 0.0
48214 C 98.5508 92.1679 84.2835 C 0.0 **** 0.0
48215 C 99.9334 91.9511 83.6547 C 0.0 **** 0.0
48216 C 101.077 92.128 84.641 C 0.0 **** 0.0
48217 C 100.964 93.5017 85.3219 C 0.0 **** 0.0
48218 C 99.4492 98.1347 87.3804 C 0.0 **** 0.0
48219 C 99.5903 99.6904 87.3665 C 0.0 **** 0.0
48220 C 100.597 95.8292 87.1131 C 0.0 **** 0.0
48221 C 100.791 97.3722 87.2808 C 0.0 **** 0.0
48222 C 101.73 93.6215 86.6299 C 0.0 **** 0.0
48223 C 101.942 95.1153 86.9814 C 0.0 **** 0.0
48224 C 101.485 91.0178 85.6517 C 0.0 **** 0.0
48225 C 102.926 91.3763 86.0103 C 0.0 **** 0.0
48226 C 103.021 92.8251 86.6018 C 0.0 **** 0.0
48227 O 100.004 90.8271 82.8282 O 0.0 **** 0.0
48228 C 99.3183 91.1879 81.6279 C 0.0 **** 0.0
48229 C 97.7952 91.6106 81.8853 C 0.0 **** 0.0
48230 C 97.46 91.4637 83.4056 C 0.0 **** 0.0
48231 C 96.7853 90.7653 81.0243 C 0.0 **** 0.0
48232 C 97.2705 90.9016 79.592 C 0.0 **** 0.0
48233 C 98.536 90.1403 79.3959 C 0.0 **** 0.0
48234 C 99.408 89.9956 80.6786 C 0.0 **** 0.0
48235 C 100.907 89.7362 80.3216 C 0.0 **** 0.0
48236 C 101.058 88.938 79.0591 C 0.0 **** 0.0
48237 C 100.367 89.6638 77.8882 C 0.0 **** 0.0
48238 N 99.318 90.6167 78.2525 N 0.0 **** 0.0
48239 C 101.782 97.6936 88.4659 C 0.0 **** 0.0
48240 C 102.993 96.7335 88.4613 C 0.0 **** 0.0
48241 C 102.628 95.2644 88.327 C 0.0 **** 0.0
48242 O 103.669 96.9605 89.6565 O 0.0 **** 0.0
48243 C 104.168 98.286 89.7095 C 0.0 **** 0.0
48244 C 103.047 99.2948 89.504 C 0.0 **** 0.0
48245 O 102.291 99.0003 88.3965 O 0.0 **** 0.0
48246 C 103.607 100.776 89.4373 C 0.0 **** 0.0
48247 C 105.128 100.916 89.3141 C 0.0 **** 0.0
48248 C 105.67 99.8534 88.3553 C 0.0 **** 0.0
48249 C 105.382 98.4307 88.7809 C 0.0 **** 0.0
48250 C 103.62 92.9102 88.0299 C 0.0 **** 0.0
48251 C 103.857 94.3689 88.4543 C 0.0 **** 0.0
48252 C 103.515 90.3077 86.9418 C 0.0 **** 0.0
48253 C 104.897 90.7491 87.4513 C 0.0 **** 0.0
48254 C 104.887 92.0308 88.2725 C 0.0 **** 0.0
48255 C 103.692 89.109 86.0611 C 0.0 **** 0.0
48256 C 102.263 88.546 85.7405 C 0.0 **** 0.0
48257 C 101.395 89.597 85.0146 C 0.0 **** 0.0
48258 O 105.532 89.7461 88.1524 O 0.0 **** 0.0
48259 C 105.849 88.7397 87.2587 C 0.0 **** 0.0
48260 C 104.57 88.1161 86.7165 C 0.0 **** 0.0
48261 C 102.301 87.1764 84.9918 C 0.0 **** 0.0
48262 C 103.527 86.2299 85.3643 C 0.0 **** 0.0
48263 C 104.858 86.9572 85.7231 C 0.0 **** 0.0
48264 C 103.931 85.238 84.2274 C 0.0 **** 0.0
48265 C 102.682 84.7254 83.4581 C 0.0 **** 0.0
48266 C 101.799 85.8331 82.8596 C 0.0 **** 0.0
48267 C 102.136 87.2299 83.4502 C 0.0 **** 0.0
48268 C 105.835 85.9535 86.3457 C 0.0 **** 0.0
48269 C 107.043 86.6255 86.9234 C 0.0 **** 0.0
48270 C 106.634 87.6446 87.9653 C 0.0 **** 0.0
48271 C 104.933 84.1541 84.7537 C 0.0 **** 0.0
48272 C 106.178 84.9062 85.2689 C 0.0 **** 0.0
48273 C 91.236 102.214 82.1551 C 0.0 **** 0.0
48274 C 92.663 101.576 81.8043 C 0.0 **** 0.0
48275 C 90.4523 102.304 80.8564 C 0.0 **** 0.0
48276 O 96.14 91.8956 83.6623 O 0.0 **** 0.0
48277 C 107.879 88.1871 88.6656 C 0.0 **** 0.0
48278 C 108.694 87.0167 89.3906 C 0.0 **** 0.0
48279 C 109.066 85.8997 88.388 C 0.0 **** 0.0
48280 C 107.919 85.5308 87.4715 C 0.0 **** 0.0
48281 C 108.418 84.6489 86.3177 C 0.0 **** 0.0
48282 C 109.594 83.7815 86.7046 C 0.0 **** 0.0
48283 C 109.461 83.323 88.1911 C 0.0 **** 0.0
48284 C 109.481 84.5789 89.1131 C 0.0 **** 0.0
48285 C 110.521 82.3194 88.5868 C 0.0 **** 0.0
48286 C 110.569 81.1726 87.5955 C 0.0 **** 0.0
48287 C 110.949 81.724 86.226 C 0.0 **** 0.0
48288 C 109.859 82.6836 85.6918 C 0.0 **** 0.0
48289 C 108.648 81.9201 85.2056 C 0.0 **** 0.0
48290 C 107.57 82.8679 84.6843 C 0.0 **** 0.0
48291 C 107.225 83.8926 85.7917 C 0.0 **** 0.0
48292 C 109.112 80.9338 84.0768 C 0.0 **** 0.0
48293 C 110.086 79.9593 84.7072 C 0.0 **** 0.0
48294 C 111.325 80.6361 85.2222 C 0.0 **** 0.0
48295 C 105.359 83.1509 83.6785 C 0.0 **** 0.0
48296 C 106.321 82.1295 84.283 C 0.0 **** 0.0
48297 C 107.914 80.1482 83.573 C 0.0 **** 0.0
48298 C 106.62 80.9888 83.2718 C 0.0 **** 0.0
48299 C 105.347 80.1136 83.0397 C 0.0 **** 0.0
48300 C 105.726 78.6698 82.6091 C 0.0 **** 0.0
48301 C 106.977 78.6503 81.7012 C 0.0 **** 0.0
48302 C 108.152 79.2954 82.3488 C 0.0 **** 0.0
48303 O 109.275 79.1409 81.8271 O 0.0 **** 0.0
48304 H 92.8248 109.637 85.1164 H 0.0 **** 0.0
48305 H 93.6598 108.41 86.058 H 0.0 **** 0.0
48306 H 90.738 108.982 86.0149 H 0.0 **** 0.0
48307 H 91.6942 107.503 86.5907 H 0.0 **** 0.0
48308 H 91.1767 110.088 88.0674 H 0.0 **** 0.0
48309 H 92.5828 109.399 89.9242 H 0.0 **** 0.0
48310 H 94.7496 109.01 87.9046 H 0.0 **** 0.0
48311 H 94.1346 110.509 88.7843 H 0.0 **** 0.0
48312 H 93.4983 106.956 88.1918 H 0.0 **** 0.0
48313 H 91.6355 105.93 88.6198 H 0.0 **** 0.0
48314 H 90.8357 107.887 90.7686 H 0.0 **** 0.0
48315 H 89.7869 106.577 90.1484 H 0.0 **** 0.0
48316 H 89.4349 108.942 89.0939 H 0.0 **** 0.0
48317 H 89.7267 107.507 87.9944 H 0.0 **** 0.0
48318 H 93.4185 104.155 91.2067 H 0.0 **** 0.0
48319 H 94.8531 105.773 91.5849 H 0.0 **** 0.0
48320 H 95.1762 107.825 89.8328 H 0.0 **** 0.0
48321 H 93.963 107.69 91.0791 H 0.0 **** 0.0
48322 H 93.2282 104.732 88.238 H 0.0 **** 0.0
48323 H 99.1066 104.272 87.8962 H 0.0 **** 0.0
48324 H 97.7639 105.146 87.1274 H 0.0 **** 0.0
48325 H 98.6383 106.718 88.7796 H 0.0 **** 0.0
48326 H 99.098 105.431 89.9124 H 0.0 **** 0.0
48327 H 97.0722 106.766 90.795 H 0.0 **** 0.0
48328 H 92.1081 103.173 86.7661 H 0.0 **** 0.0
48329 H 90.3913 100.682 90.4462 H 0.0 **** 0.0
48330 H 89.2121 101.99 90.0055 H 0.0 **** 0.0
48331 H 91.3307 103.001 90.9483 H 0.0 **** 0.0
48332 H 88.7297 99.5519 88.8484 H 0.0 **** 0.0
48333 H 88.033 100.842 87.7406 H 0.0 **** 0.0
48334 H 88.1114 98.8694 86.4831 H 0.0 **** 0.0
48335 H 89.6891 98.3754 87.0815 H 0.0 **** 0.0
48336 H 90.589 103.043 84.9112 H 0.0 **** 0.0
48337 H 92.0767 102.004 84.736 H 0.0 **** 0.0
48338 H 89.3838 101.881 83.2364 H 0.0 **** 0.0
48339 H 91.4734 99.6271 83.5297 H 0.0 **** 0.0
48340 H 90.1617 99.7033 82.2471 H 0.0 **** 0.0
48341 H 89.4899 98.3683 84.2715 H 0.0 **** 0.0
48342 H 88.4108 99.7209 84.0428 H 0.0 **** 0.0
48343 H 92.6368 99.7762 86.3417 H 0.0 **** 0.0
48344 H 95.3932 96.2535 84.2782 H 0.0 **** 0.0
48345 H 96.6854 94.2503 83.8446 H 0.0 **** 0.0
48346 H 100.142 99.9967 88.2686 H 0.0 **** 0.0
48347 H 99.8216 92.0717 81.141 H 0.0 **** 0.0
48348 H 97.6502 92.6602 81.5867 H 0.0 **** 0.0
48349 H 97.5368 90.3761 83.6364 H 0.0 **** 0.0
48350 H 96.7298 89.6903 81.3826 H 0.0 **** 0.0
48351 H 95.7781 91.2016 81.1548 H 0.0 **** 0.0
48352 H 97.3959 91.9599 79.3903 H 0.0 **** 0.0
48353 H 96.5181 90.6125 78.8374 H 0.0 **** 0.0
48354 H 98.1244 89.1646 79.0813 H 0.0 **** 0.0
48355 H 99.0815 89.063 81.1703 H 0.0 **** 0.0
48356 H 101.404 90.7198 80.1762 H 0.0 **** 0.0
48357 H 101.387 89.2148 81.1379 H 0.0 **** 0.0
48358 H 100.6 87.9792 79.31 H 0.0 **** 0.0
48359 H 102.109 88.7458 78.8524 H 0.0 **** 0.0
48360 H 99.9561 88.924 77.1922 H 0.0 **** 0.0
48361 H 101.13 90.1999 77.2599 H 0.0 **** 0.0
48362 H 99.7638 91.5009 78.559 H 0.0 **** 0.0
48363 H 104.587 98.4074 90.6988 H 0.0 **** 0.0
48364 H 102.401 99.2411 90.3884 H 0.0 **** 0.0
48365 H 103.078 101.224 88.5373 H 0.0 **** 0.0
48366 H 103.248 101.323 90.3 H 0.0 **** 0.0
48367 H 105.535 100.799 90.3083 H 0.0 **** 0.0
48368 H 105.323 101.959 89.0111 H 0.0 **** 0.0
48369 H 106.782 99.9922 88.3126 H 0.0 **** 0.0
48370 H 105.301 100.021 87.3089 H 0.0 **** 0.0
48371 H 106.259 97.9928 89.2604 H 0.0 **** 0.0
48372 H 105.209 97.8681 87.8069 H 0.0 **** 0.0
48373 H 104.298 94.3691 89.5228 H 0.0 **** 0.0
48374 H 105.876 92.5016 88.1187 H 0.0 **** 0.0
48375 H 100.315 89.3014 84.9759 H 0.0 **** 0.0
48376 H 101.406 86.6011 85.3744 H 0.0 **** 0.0
48377 H 103.22 85.5731 86.223 H 0.0 **** 0.0
48378 H 104.472 85.8135 83.4265 H 0.0 **** 0.0
48379 H 102.096 84.0963 84.0774 H 0.0 **** 0.0
48380 H 103.074 84.1235 82.6226 H 0.0 **** 0.0
48381 H 100.727 85.5739 83.0932 H 0.0 **** 0.0
48382 H 101.928 85.8167 81.7871 H 0.0 **** 0.0
48383 H 101.337 87.925 83.0879 H 0.0 **** 0.0
48384 H 103.081 87.6055 83.0508 H 0.0 **** 0.0
48385 H 91.4569 103.25 82.4304 H 0.0 **** 0.0
48386 H 93.1517 102.264 81.0978 H 0.0 **** 0.0
48387 H 92.4642 100.552 81.4102 H 0.0 **** 0.0
48388 H 93.3055 101.558 82.7311 H 0.0 **** 0.0
48389 H 89.4785 102.817 81.0754 H 0.0 **** 0.0
48390 H 90.2014 101.339 80.4354 H 0.0 **** 0.0
48391 H 90.9936 102.885 80.1085 H 0.0 **** 0.0
48392 H 96.0014 91.7249 84.6265 H 0.0 **** 0.0
48393 H 107.617 88.9769 89.4439 H 0.0 **** 0.0
48394 H 109.566 87.5583 89.8689 H 0.0 **** 0.0
48395 H 108.715 84.3894 89.9028 H 0.0 **** 0.0
48396 H 111.536 82.7825 88.5931 H 0.0 **** 0.0
48397 H 111.222 80.3429 87.9028 H 0.0 **** 0.0
48398 H 110.405 79.1178 84.0504 H 0.0 **** 0.0
48399 H 111.997 79.9448 85.7265 H 0.0 **** 0.0
48400 H 104.489 82.6468 83.2877 H 0.0 **** 0.0
48401 H 104.613 80.0991 83.9239 H 0.0 **** 0.0
48402 H 104.78 80.5303 82.1894 H 0.0 **** 0.0
48403 H 104.849 78.1918 82.1275 H 0.0 **** 0.0
48404 H 105.842 78.0314 83.5321 H 0.0 **** 0.0
48405 H 106.674 79.2444 80.7826 H 0.0 **** 0.0
48406 H 107.261 77.6151 81.3484 H 0.0 **** 0.0
48407 C -6.42287 9.60133 48.7961 C 0.0 **** 0.0
48408 C -7.28555 8.6538 49.6005 C 0.0 **** 0.0
48409 C -8.49438 9.40305 50.1794 C 0.0 **** 0.0
48410 C -8.12133 10.7039 50.9988 C 0.0 **** 0.0
48411 C -6.73884 11.1725 50.5226 C 0.0 **** 0.0
48412 O -6.53153 10.9822 49.1483 O 0.0 **** 0.0
48413 C -8.1125 10.56 52.5344 C 0.0 **** 0.0
48414 C -8.98588 9.34557 53.1183 C 0.0 **** 0.0
48415 C -10.1314 9.01029 52.133 C 0.0 **** 0.0
48416 C -9.53827 8.46782 50.8754 C 0.0 **** 0.0
48417 O -9.6075 9.65214 54.3186 O 0.0 **** 0.0
48418 C -8.76903 10.2985 55.2844 C 0.0 **** 0.0
48419 C -8.48478 11.7061 54.8106 C 0.0 **** 0.0
48420 C -8.41679 11.8828 53.2639 C 0.0 **** 0.0
48421 C -7.35335 12.3763 55.5744 C 0.0 **** 0.0
48422 C -6.32412 11.6301 56.2225 C 0.0 **** 0.0
48423 C -6.81517 10.2661 56.7787 C 0.0 **** 0.0
48424 C -7.54451 9.44383 55.7174 C 0.0 **** 0.0
48425 C -5.70145 9.47131 57.4822 C 0.0 **** 0.0
48426 C -4.99768 10.3272 58.5652 C 0.0 **** 0.0
48427 C -4.43627 11.6327 58.0027 C 0.0 **** 0.0
48428 C -5.63165 12.409 57.3748 C 0.0 **** 0.0
48429 C -5.28592 13.8682 57.0007 C 0.0 **** 0.0
48430 C -6.58023 14.5699 56.6295 C 0.0 **** 0.0
48431 C -7.28604 13.7729 55.5367 C 0.0 **** 0.0
48432 O -3.66684 12.4352 58.9129 O 0.0 **** 0.0
48433 C -3.64373 11.9168 60.212 C 0.0 **** 0.0
48434 C -3.07506 10.4495 60.2205 C 0.0 **** 0.0
48435 C -3.959 9.50628 59.3423 C 0.0 **** 0.0
48436 C -7.92075 8.08523 56.2875 C 0.0 **** 0.0
48437 C -6.79457 7.32103 56.9183 C 0.0 **** 0.0
48438 C -6.28841 8.18621 58.0846 C 0.0 **** 0.0
48439 C -7.11553 5.85223 57.2111 C 0.0 **** 0.0
48440 C -8.40377 5.46597 57.4128 C 0.0 **** 0.0
48441 C -9.58458 6.32011 57.0734 C 0.0 **** 0.0
48442 C -9.19387 7.62492 56.4907 C 0.0 **** 0.0
48443 C -8.71391 4.01239 57.7568 C 0.0 **** 0.0
48444 C -7.605 3.44383 58.6275 C 0.0 **** 0.0
48445 C -6.22209 3.80169 58.1404 C 0.0 **** 0.0
48446 C -6.03111 4.89608 57.3751 C 0.0 **** 0.0
48447 C -4.64021 5.21181 56.7755 C 0.0 **** 0.0
48448 C -3.56615 4.10755 56.9485 C 0.0 **** 0.0
48449 C -3.69923 3.50319 58.3785 C 0.0 **** 0.0
48450 C -5.12686 2.94429 58.669 C 0.0 **** 0.0
48451 C -4.61736 8.34297 60.0995 C 0.0 **** 0.0
48452 C -5.36436 7.47198 59.0663 C 0.0 **** 0.0
48453 C -2.91071 9.91686 61.6598 C 0.0 **** 0.0
48454 C -2.25668 8.55046 61.6186 C 0.0 **** 0.0
48455 S -3.37755 7.31464 60.9928 S 0.0 **** 0.0
48456 C -1.83158 8.04861 63.0296 C 0.0 **** 0.0
48457 C -1.00354 9.07067 63.7803 C 0.0 **** 0.0
48458 C -1.69953 10.456 63.8543 C 0.0 **** 0.0
48459 C -2.07644 10.9161 62.4578 C 0.0 **** 0.0
48460 C -0.644893 11.442 64.4308 C 0.0 **** 0.0
48461 C -0.325682 11.0175 65.8847 C 0.0 **** 0.0
48462 C 0.108893 9.54009 65.9925 C 0.0 **** 0.0
48463 C -0.714734 8.53331 65.207 C 0.0 **** 0.0
48464 C 0.372361 9.19296 67.4942 C 0.0 **** 0.0
48465 C 1.35121 10.1051 68.2045 C 0.0 **** 0.0
48466 C 1.00356 11.5472 68.0193 C 0.0 **** 0.0
48467 C 0.719548 11.9435 66.4999 C 0.0 **** 0.0
48468 C -2.8238 12.2689 62.4843 C 0.0 **** 0.0
48469 C -2.77354 12.8386 61.0786 C 0.0 **** 0.0
48470 C -1.09738 12.9457 64.2869 C 0.0 **** 0.0
48471 C -2.5596 13.0877 63.7548 C 0.0 **** 0.0
48472 C 0.469028 13.4378 66.2861 C 0.0 **** 0.0
48473 C -0.909162 13.7155 65.607 C 0.0 **** 0.0
48474 C 1.86794 12.5434 68.8296 C 0.0 **** 0.0
48475 C 1.88056 13.9485 68.2488 C 0.0 **** 0.0
48476 C 0.588911 14.2363 67.5899 C 0.0 **** 0.0
48477 O 1.22252 9.86836 69.6006 O 0.0 **** 0.0
48478 C 1.43728 8.47398 69.9109 C 0.0 **** 0.0
48479 C 0.382447 7.5719 69.2135 C 0.0 **** 0.0
48480 C -0.586153 8.4321 68.414 C 0.0 **** 0.0
48481 C -0.263123 6.53855 70.154 C 0.0 **** 0.0
48482 C 0.851506 5.89384 70.9385 C 0.0 **** 0.0
48483 C 1.37223 6.88858 71.9833 C 0.0 **** 0.0
48484 C 1.35189 8.35631 71.4674 C 0.0 **** 0.0
48485 C 2.40447 9.21949 72.206 C 0.0 **** 0.0
48486 C 2.65369 8.75848 73.6379 C 0.0 **** 0.0
48487 C 3.17824 7.29322 73.6166 C 0.0 **** 0.0
48488 N 2.71478 6.46372 72.4552 N 0.0 **** 0.0
48489 C -2.88337 14.5758 63.5931 C 0.0 **** 0.0
48490 C -2.60444 15.4037 64.8313 C 0.0 **** 0.0
48491 C -1.16714 15.206 65.3995 C 0.0 **** 0.0
48492 O -2.80906 16.759 64.5832 O 0.0 **** 0.0
48493 C -4.18552 16.9924 64.2252 C 0.0 **** 0.0
48494 C -4.53191 16.1162 63.0043 C 0.0 **** 0.0
48495 O -4.22201 14.733 63.2192 O 0.0 **** 0.0
48496 C -3.8609 16.6868 61.7339 C 0.0 **** 0.0
48497 C -4.29217 18.119 61.4554 C 0.0 **** 0.0
48498 C -5.09426 18.7886 62.5919 C 0.0 **** 0.0
48499 C -4.40643 18.5469 63.9764 C 0.0 **** 0.0
48500 C 0.400647 15.7141 67.2951 C 0.0 **** 0.0
48501 C -1.03075 15.8936 66.748 C 0.0 **** 0.0
48502 C 2.14035 14.8421 69.4293 C 0.0 **** 0.0
48503 C 2.0528 16.3203 69.0829 C 0.0 **** 0.0
48504 C 0.644104 16.5638 68.5347 C 0.0 **** 0.0
48505 C 3.47564 14.5344 70.0458 C 0.0 **** 0.0
48506 C 3.5656 13.1018 70.4841 C 0.0 **** 0.0
48507 C 3.25852 12.1639 69.3241 C 0.0 **** 0.0
48508 O 2.25524 17.1144 70.2293 O 0.0 **** 0.0
48509 C 3.55083 16.9379 70.7281 C 0.0 **** 0.0
48510 C 3.68458 15.4716 71.2462 C 0.0 **** 0.0
48511 C 4.83982 12.7368 71.2841 C 0.0 **** 0.0
48512 C 5.3299 13.8783 72.2931 C 0.0 **** 0.0
48513 C 5.13528 15.2769 71.7586 C 0.0 **** 0.0
48514 C 6.86996 13.7608 72.5143 C 0.0 **** 0.0
48515 C 7.24667 12.3151 72.7509 C 0.0 **** 0.0
48516 C 7.10879 11.5913 71.3436 C 0.0 **** 0.0
48517 C 5.99 12.1982 70.4171 C 0.0 **** 0.0
48518 C 5.45151 16.2753 72.8305 C 0.0 **** 0.0
48519 C 5.17261 17.7274 72.4725 C 0.0 **** 0.0
48520 C 3.77606 17.9311 71.8675 C 0.0 **** 0.0
48521 C 7.29915 14.7017 73.6759 C 0.0 **** 0.0
48522 C 6.90941 16.1191 73.2517 C 0.0 **** 0.0
48523 C -2.15131 4.66801 56.643 C 0.0 **** 0.0
48524 C -1.69804 5.82542 57.5568 C 0.0 **** 0.0
48525 C -1.02036 3.61433 56.617 C 0.0 **** 0.0
48526 O -1.48673 7.60051 67.7522 O 0.0 **** 0.0
48527 C 3.65961 19.394 71.5073 C 0.0 **** 0.0
48528 C 3.69402 20.2464 72.8248 C 0.0 **** 0.0
48529 C 5.00138 20.0128 73.6004 C 0.0 **** 0.0
48530 C 5.30414 18.5315 73.7883 C 0.0 **** 0.0
48531 C 6.75984 18.4401 74.3021 C 0.0 **** 0.0
48532 C 6.91934 19.2211 75.6307 C 0.0 **** 0.0
48533 C 6.48087 20.6841 75.3911 C 0.0 **** 0.0
48534 C 5.0688 20.7273 74.9564 C 0.0 **** 0.0
48535 C 6.65316 21.4403 76.7083 C 0.0 **** 0.0
48536 C 8.07232 21.3248 77.2804 C 0.0 **** 0.0
48537 C 8.40872 19.8283 77.5423 C 0.0 **** 0.0
48538 C 8.36225 19.1096 76.177 C 0.0 **** 0.0
48539 C 8.65652 17.6023 76.3109 C 0.0 **** 0.0
48540 C 8.67857 16.9516 74.9043 C 0.0 **** 0.0
48541 C 7.21701 16.9993 74.4662 C 0.0 **** 0.0
48542 C 9.94479 17.3442 77.0645 C 0.0 **** 0.0
48543 C 9.87808 18.077 78.4067 C 0.0 **** 0.0
48544 C 9.70699 19.5812 78.2897 C 0.0 **** 0.0
48545 C 8.84521 14.65 73.8026 C 0.0 **** 0.0
48546 C 9.32919 15.5507 74.8976 C 0.0 **** 0.0
48547 C 10.2662 15.8415 77.2545 C 0.0 **** 0.0
48548 C 9.55386 14.8771 76.276 C 0.0 **** 0.0
48549 C 10.2456 13.4784 76.1294 C 0.0 **** 0.0
48550 C 11.1793 13.2429 77.3301 C 0.0 **** 0.0
48551 C 12.3074 14.2519 77.4536 C 0.0 **** 0.0
48552 C 11.7296 15.6304 77.1793 C 0.0 **** 0.0
48553 O 12.478 16.4934 76.7064 O 0.0 **** 0.0
48554 H -6.77246 9.4753 47.7791 H 0.0 **** 0.0
48555 H -5.35576 9.29426 48.7738 H 0.0 **** 0.0
48556 H -7.61877 7.76434 48.9673 H 0.0 **** 0.0
48557 H -6.67572 8.25856 50.4122 H 0.0 **** 0.0
48558 H -8.9731 9.76589 49.2538 H 0.0 **** 0.0
48559 H -8.87883 11.5012 50.7294 H 0.0 **** 0.0
48560 H -5.9127 10.6508 51.0998 H 0.0 **** 0.0
48561 H -6.65985 12.2747 50.7339 H 0.0 **** 0.0
48562 H -7.09407 10.2718 52.8265 H 0.0 **** 0.0
48563 H -8.36213 8.43711 53.3089 H 0.0 **** 0.0
48564 H -10.8116 9.90477 51.9333 H 0.0 **** 0.0
48565 H -10.7989 8.24047 52.5597 H 0.0 **** 0.0
48566 H -10.4032 8.28527 50.2369 H 0.0 **** 0.0
48567 H -9.12218 7.43648 51.0854 H 0.0 **** 0.0
48568 H -9.3229 10.38 56.2287 H 0.0 **** 0.0
48569 H -9.38251 12.2044 55.1205 H 0.0 **** 0.0
48570 H -7.68574 12.6595 52.964 H 0.0 **** 0.0
48571 H -9.45041 12.2414 52.9254 H 0.0 **** 0.0
48572 H -6.87178 9.25695 54.8725 H 0.0 **** 0.0
48573 H -4.76694 14.4289 57.7942 H 0.0 **** 0.0
48574 H -4.60551 13.8456 56.1324 H 0.0 **** 0.0
48575 H -6.37332 15.5752 56.3148 H 0.0 **** 0.0
48576 H -7.22406 14.6698 57.5769 H 0.0 **** 0.0
48577 H -8.04823 14.3096 54.9641 H 0.0 **** 0.0
48578 H -6.04239 7.3199 56.1303 H 0.0 **** 0.0
48579 H -10.1458 6.47838 58.058 H 0.0 **** 0.0
48580 H -10.2934 5.76785 56.4027 H 0.0 **** 0.0
48581 H -10.023 8.20833 56.2075 H 0.0 **** 0.0
48582 H -9.68327 3.99256 58.2836 H 0.0 **** 0.0
48583 H -8.74508 3.41334 56.8407 H 0.0 **** 0.0
48584 H -7.65579 2.31645 58.6427 H 0.0 **** 0.0
48585 H -7.79349 3.88427 59.5956 H 0.0 **** 0.0
48586 H -4.72711 5.4383 55.6963 H 0.0 **** 0.0
48587 H -4.29374 6.12658 57.2714 H 0.0 **** 0.0
48588 H -3.77628 3.32729 56.2119 H 0.0 **** 0.0
48589 H -3.48788 4.24839 59.2074 H 0.0 **** 0.0
48590 H -3.0132 2.66314 58.4542 H 0.0 **** 0.0
48591 H -5.22454 2.75091 59.7779 H 0.0 **** 0.0
48592 H -5.17973 1.95087 58.1585 H 0.0 **** 0.0
48593 H -5.8585 6.63416 59.6025 H 0.0 **** 0.0
48594 H -1.29517 7.05695 62.9506 H 0.0 **** 0.0
48595 H -0.243516 7.59359 65.0345 H 0.0 **** 0.0
48596 H -3.1828 13.866 61.0864 H 0.0 **** 0.0
48597 H 2.44941 8.16659 69.6013 H 0.0 **** 0.0
48598 H 0.987457 6.98302 68.4471 H 0.0 **** 0.0
48599 H -1.15361 9.1798 69.049 H 0.0 **** 0.0
48600 H -0.975038 6.9859 70.852 H 0.0 **** 0.0
48601 H -0.781758 5.79255 69.5523 H 0.0 **** 0.0
48602 H 1.70026 5.62376 70.2909 H 0.0 **** 0.0
48603 H 0.493595 4.93249 71.3673 H 0.0 **** 0.0
48604 H 0.665674 6.85593 72.8398 H 0.0 **** 0.0
48605 H 0.386048 8.74624 71.8179 H 0.0 **** 0.0
48606 H 3.36818 9.23725 71.6975 H 0.0 **** 0.0
48607 H 2.10903 10.2819 72.2368 H 0.0 **** 0.0
48608 H 1.70384 8.76233 74.159 H 0.0 **** 0.0
48609 H 3.3535 9.53313 74.106 H 0.0 **** 0.0
48610 H 2.79003 6.81786 74.5734 H 0.0 **** 0.0
48611 H 4.33216 7.28958 73.6742 H 0.0 **** 0.0
48612 H 3.42647 6.59257 71.6839 H 0.0 **** 0.0
48613 H -4.88322 16.7491 65.0403 H 0.0 **** 0.0
48614 H -5.62818 16.0589 62.8785 H 0.0 **** 0.0
48615 H -2.78033 16.768 61.9238 H 0.0 **** 0.0
48616 H -4.08367 16.0499 60.8654 H 0.0 **** 0.0
48617 H -4.9669 18.2333 60.5933 H 0.0 **** 0.0
48618 H -3.36364 18.7344 61.2002 H 0.0 **** 0.0
48619 H -6.14322 18.5129 62.6015 H 0.0 **** 0.0
48620 H -5.14938 19.8666 62.3515 H 0.0 **** 0.0
48621 H -4.98335 18.9954 64.8111 H 0.0 **** 0.0
48622 H -3.45965 19.0752 63.8927 H 0.0 **** 0.0
48623 H -1.35537 16.9627 66.7054 H 0.0 **** 0.0
48624 H 0.494171 17.6606 68.3397 H 0.0 **** 0.0
48625 H 3.3322 11.105 69.6918 H 0.0 **** 0.0
48626 H 4.51065 11.8849 71.9404 H 0.0 **** 0.0
48627 H 4.78548 13.7421 73.2568 H 0.0 **** 0.0
48628 H 7.39161 14.081 71.6058 H 0.0 **** 0.0
48629 H 6.5066 11.8279 73.4166 H 0.0 **** 0.0
48630 H 8.27677 12.1793 73.1201 H 0.0 **** 0.0
48631 H 6.93877 10.523 71.5165 H 0.0 **** 0.0
48632 H 8.0326 11.6283 70.743 H 0.0 **** 0.0
48633 H 5.73608 11.3909 69.7665 H 0.0 **** 0.0
48634 H 6.4145 12.9877 69.781 H 0.0 **** 0.0
48635 H -2.25758 5.03134 55.5987 H 0.0 **** 0.0
48636 H -0.594746 6.04976 57.4578 H 0.0 **** 0.0
48637 H -1.87662 5.44704 58.5592 H 0.0 **** 0.0
48638 H -2.24117 6.7656 57.2697 H 0.0 **** 0.0
48639 H -1.38863 2.7693 55.9516 H 0.0 **** 0.0
48640 H -0.881921 3.31683 57.6545 H 0.0 **** 0.0
48641 H -0.0499853 4.00119 56.2483 H 0.0 **** 0.0
48642 H -2.22866 7.3829 68.358 H 0.0 **** 0.0
48643 H 2.71324 19.5089 71.0696 H 0.0 **** 0.0
48644 H 3.60414 21.3288 72.5493 H 0.0 **** 0.0
48645 H 4.70597 21.7949 74.811 H 0.0 **** 0.0
48646 H 6.42872 22.4968 76.5227 H 0.0 **** 0.0
48647 H 8.07599 21.8244 78.2746 H 0.0 **** 0.0
48648 H 10.7942 17.9094 78.9501 H 0.0 **** 0.0
48649 H 9.64685 20.0805 79.262 H 0.0 **** 0.0
48650 H 9.37869 14.9037 72.8342 H 0.0 **** 0.0
48651 H 9.47201 12.7215 76.1345 H 0.0 **** 0.0
48652 H 10.7886 13.3142 75.1556 H 0.0 **** 0.0
48653 H 11.6441 12.2373 77.098 H 0.0 **** 0.0
48654 H 10.5531 13.1567 78.2437 H 0.0 **** 0.0
48655 H 13.0642 13.9341 76.6778 H 0.0 **** 0.0
48656 H 12.7758 14.2211 78.4738 H 0.0 **** 0.0
48657 C 95.7994 24.9341 31.3223 C 0.0 **** 0.0
48658 C 94.6854 23.9776 30.7763 C 0.0 **** 0.0
48659 C 94.6967 23.969 29.2437 C 0.0 **** 0.0
48660 C 94.7112 25.3829 28.6676 C 0.0 **** 0.0
48661 C 95.8977 26.1344 29.3058 C 0.0 **** 0.0
48662 O 95.833 26.2195 30.7035 O 0.0 **** 0.0
48663 C 93.3597 26.1315 28.9247 C 0.0 **** 0.0
48664 C 92.1089 25.2075 28.826 C 0.0 **** 0.0
48665 C 92.4177 24.0045 27.982 C 0.0 **** 0.0
48666 C 93.5262 23.1421 28.6047 C 0.0 **** 0.0
48667 O 90.8875 25.7738 28.3087 O 0.0 **** 0.0
48668 C 90.7101 27.1187 28.7119 C 0.0 **** 0.0
48669 C 91.8122 28.0126 28.1181 C 0.0 **** 0.0
48670 C 93.2176 27.4012 28.0669 C 0.0 **** 0.0
48671 C 91.7573 29.3941 28.7621 C 0.0 **** 0.0
48672 C 91.621 29.5422 30.1778 C 0.0 **** 0.0
48673 C 90.4093 28.7466 30.7191 C 0.0 **** 0.0
48674 C 90.4942 27.2646 30.2415 C 0.0 **** 0.0
48675 C 90.4128 28.8307 32.2007 C 0.0 **** 0.0
48676 C 90.5818 30.1977 32.8243 C 0.0 **** 0.0
48677 C 90.7677 31.3607 31.816 C 0.0 **** 0.0
48678 C 91.7675 31.0245 30.6661 C 0.0 **** 0.0
48679 C 92.0556 32.1214 29.6443 C 0.0 **** 0.0
48680 C 91.3985 31.8984 28.3186 C 0.0 **** 0.0
48681 C 91.6379 30.4998 27.9148 C 0.0 **** 0.0
48682 O 91.1196 32.4916 32.5662 O 0.0 **** 0.0
48683 C 90.0081 32.8386 33.3279 C 0.0 **** 0.0
48684 C 89.8342 31.8938 34.5028 C 0.0 **** 0.0
48685 C 89.5801 30.5073 33.9333 C 0.0 **** 0.0
48686 C 89.2925 26.5632 30.8191 C 0.0 **** 0.0
48687 C 89.3693 26.4991 32.3249 C 0.0 **** 0.0
48688 C 89.3982 27.9335 32.924 C 0.0 **** 0.0
48689 C 88.253 25.7077 32.9085 C 0.0 **** 0.0
48690 C 87.0291 25.7201 32.3492 C 0.0 **** 0.0
48691 C 86.9375 25.7828 30.8241 C 0.0 **** 0.0
48692 C 88.1679 26.3055 30.1422 C 0.0 **** 0.0
48693 C 85.9287 25.0864 33.1175 C 0.0 **** 0.0
48694 C 86.0212 25.4676 34.6277 C 0.0 **** 0.0
48695 C 87.4042 24.9906 35.1393 C 0.0 **** 0.0
48696 C 88.436 25.0096 34.2595 C 0.0 **** 0.0
48697 C 89.8276 24.6117 34.6723 C 0.0 **** 0.0
48698 C 89.8703 23.6881 35.8867 C 0.0 **** 0.0
48699 C 88.9888 24.3015 37.0077 C 0.0 **** 0.0
48700 C 87.5201 24.4395 36.5619 C 0.0 **** 0.0
48701 C 89.6601 29.4747 35.0389 C 0.0 **** 0.0
48702 C 89.73 28.0418 34.4694 C 0.0 **** 0.0
48703 C 88.729 32.3502 35.5098 C 0.0 **** 0.0
48704 C 88.636 31.4433 36.7063 C 0.0 **** 0.0
48705 S 88.3042 29.7031 36.2609 S 0.0 **** 0.0
48706 C 87.6003 31.9645 37.6976 C 0.0 **** 0.0
48707 C 87.9405 33.3749 38.1916 C 0.0 **** 0.0
48708 C 88.0969 34.3366 36.9922 C 0.0 **** 0.0
48709 C 89.1297 33.7812 35.984 C 0.0 **** 0.0
48710 C 88.3941 35.7751 37.4705 C 0.0 **** 0.0
48711 C 87.2927 36.265 38.4387 C 0.0 **** 0.0
48712 C 87.1445 35.2688 39.6108 C 0.0 **** 0.0
48713 C 86.8275 33.8665 39.1039 C 0.0 **** 0.0
48714 C 86.2065 35.6982 40.683 C 0.0 **** 0.0
48715 C 86.2693 37.1841 41.1184 C 0.0 **** 0.0
48716 C 86.4759 38.1541 39.9455 C 0.0 **** 0.0
48717 C 87.6424 37.6182 39.0087 C 0.0 **** 0.0
48718 C 89.1293 34.6934 34.7775 C 0.0 **** 0.0
48719 C 90.2827 34.2147 33.8974 C 0.0 **** 0.0
48720 C 88.4733 36.7424 36.2876 C 0.0 **** 0.0
48721 C 89.3879 36.1828 35.1471 C 0.0 **** 0.0
48722 C 88.0487 38.6676 37.9775 C 0.0 **** 0.0
48723 C 88.7876 38.2192 36.6725 C 0.0 **** 0.0
48724 C 86.7405 39.6928 40.2897 C 0.0 **** 0.0
48725 C 88.2265 40.1139 40.0926 C 0.0 **** 0.0
48726 C 88.5543 39.9855 38.5792 C 0.0 **** 0.0
48727 O 85.01 37.3976 41.6807 O 0.0 **** 0.0
48728 C 84.9548 36.8735 43.0121 C 0.0 **** 0.0
48729 C 85.8346 35.5921 43.2646 C 0.0 **** 0.0
48730 C 86.0894 34.7732 41.9545 C 0.0 **** 0.0
48731 C 85.2994 34.6707 44.4251 C 0.0 **** 0.0
48732 C 84.5236 35.481 45.4661 C 0.0 **** 0.0
48733 C 83.1998 36.038 44.8011 C 0.0 **** 0.0
48734 C 83.4416 36.7197 43.4092 C 0.0 **** 0.0
48735 C 82.7082 38.0952 43.3207 C 0.0 **** 0.0
48736 C 81.2723 38.014 43.8535 C 0.0 **** 0.0
48737 C 81.2209 37.3838 45.2598 C 0.0 **** 0.0
48738 N 82.5362 36.9436 45.7561 N 0.0 **** 0.0
48739 C 90.7202 36.8957 34.8253 C 0.0 **** 0.0
48740 C 90.6884 38.4079 35.1774 C 0.0 **** 0.0
48741 C 90.3006 38.5857 36.647 C 0.0 **** 0.0
48742 O 91.9157 39.0461 34.8572 O 0.0 **** 0.0
48743 C 92.0432 38.9292 33.4747 C 0.0 **** 0.0
48744 C 92.1886 37.4524 33.076 C 0.0 **** 0.0
48745 O 91.0097 36.7115 33.4463 O 0.0 **** 0.0
48746 C 93.4427 36.8795 33.75 C 0.0 **** 0.0
48747 C 94.6321 37.8299 33.6432 C 0.0 **** 0.0
48748 C 94.4455 39.0106 32.6509 C 0.0 **** 0.0
48749 C 93.2145 39.8114 32.9671 C 0.0 **** 0.0
48750 C 90.0737 40.1678 38.4246 C 0.0 **** 0.0
48751 C 90.4815 40.0131 36.994 C 0.0 **** 0.0
48752 C 88.5573 41.5227 40.4947 C 0.0 **** 0.0
48753 C 90.0621 41.7731 40.3618 C 0.0 **** 0.0
48754 C 90.4367 41.5571 38.9088 C 0.0 **** 0.0
48755 C 88.0946 41.8406 41.8986 C 0.0 **** 0.0
48756 C 86.5571 41.6767 41.9977 C 0.0 **** 0.0
48757 C 86.2022 40.1995 41.6392 C 0.0 **** 0.0
48758 O 90.359 43.0658 40.7326 O 0.0 **** 0.0
48759 C 90.1077 43.1074 42.093 C 0.0 **** 0.0
48760 C 88.6056 43.1768 42.3206 C 0.0 **** 0.0
48761 C 85.9169 42.2653 43.29 C 0.0 **** 0.0
48762 C 86.743 43.4608 43.9999 C 0.0 **** 0.0
48763 C 88.2868 43.3643 43.7709 C 0.0 **** 0.0
48764 C 86.5325 43.5728 45.5551 C 0.0 **** 0.0
48765 C 85.0453 43.3219 45.8838 C 0.0 **** 0.0
48766 C 84.5479 41.9234 45.4708 C 0.0 **** 0.0
48767 C 85.3567 41.286 44.3117 C 0.0 **** 0.0
48768 C 88.9634 44.6846 44.2688 C 0.0 **** 0.0
48769 C 90.4877 44.5285 44.1042 C 0.0 **** 0.0
48770 C 90.9107 44.2448 42.663 C 0.0 **** 0.0
48771 C 87.1339 44.9228 45.9827 C 0.0 **** 0.0
48772 C 88.6773 44.8861 45.7549 C 0.0 **** 0.0
48773 C 91.3477 23.3994 36.2495 C 0.0 **** 0.0
48774 C 92.1308 24.5804 36.8069 C 0.0 **** 0.0
48775 C 91.5261 22.1474 37.1706 C 0.0 **** 0.0
48776 O 87.2689 33.9704 42.0606 O 0.0 **** 0.0
48777 C 92.439 43.9112 42.7186 C 0.0 **** 0.0
48778 C 93.1983 45.1553 43.0854 C 0.0 **** 0.0
48779 C 92.7793 45.6264 44.4616 C 0.0 **** 0.0
48780 C 91.2464 45.7821 44.5366 C 0.0 **** 0.0
48781 C 90.8781 46.2009 45.9171 C 0.0 **** 0.0
48782 C 91.5068 47.5099 46.2 C 0.0 **** 0.0
48783 C 93.0196 47.4833 46.0206 C 0.0 **** 0.0
48784 C 93.4037 46.9895 44.6647 C 0.0 **** 0.0
48785 C 93.512 48.9325 46.1049 C 0.0 **** 0.0
48786 C 93.2313 49.4477 47.4798 C 0.0 **** 0.0
48787 C 91.7317 49.3339 47.9076 C 0.0 **** 0.0
48788 C 91.243 47.8684 47.6939 C 0.0 **** 0.0
48789 C 89.7902 47.7174 48.1282 C 0.0 **** 0.0
48790 C 89.1932 46.3829 47.6927 C 0.0 **** 0.0
48791 C 89.348 46.1998 46.1953 C 0.0 **** 0.0
48792 C 89.8081 47.8765 49.6877 C 0.0 **** 0.0
48793 C 90.2544 49.3092 50.0186 C 0.0 **** 0.0
48794 C 91.6648 49.5416 49.4613 C 0.0 **** 0.0
48795 C 86.9529 45.2091 47.4963 C 0.0 **** 0.0
48796 C 87.7148 46.4234 48.0536 C 0.0 **** 0.0
48797 C 88.4614 47.4662 50.353 C 0.0 **** 0.0
48798 C 87.694 46.3389 49.5702 C 0.0 **** 0.0
48799 C 86.341 45.9725 50.2324 C 0.0 **** 0.0
48800 C 86.295 46.0957 51.7617 C 0.0 **** 0.0
48801 C 87.7286 45.9235 52.3349 C 0.0 **** 0.0
48802 C 88.6392 46.9818 51.76 C 0.0 **** 0.0
48803 O 89.6267 47.2376 52.3858 O 0.0 **** 0.0
48804 H 96.7719 24.4068 31.3089 H 0.0 **** 0.0
48805 H 95.4965 25.1135 32.3694 H 0.0 **** 0.0
48806 H 94.8711 22.9876 31.1636 H 0.0 **** 0.0
48807 H 93.6809 24.2654 31.1721 H 0.0 **** 0.0
48808 H 95.6116 23.4641 28.8823 H 0.0 **** 0.0
48809 H 94.9501 25.302 27.5989 H 0.0 **** 0.0
48810 H 95.9242 27.1052 28.8854 H 0.0 **** 0.0
48811 H 96.7876 25.5569 28.991 H 0.0 **** 0.0
48812 H 93.4072 26.4989 30.0065 H 0.0 **** 0.0
48813 H 91.849 24.7837 29.8157 H 0.0 **** 0.0
48814 H 92.7882 24.3268 26.9654 H 0.0 **** 0.0
48815 H 91.5118 23.3649 27.8672 H 0.0 **** 0.0
48816 H 93.8817 22.4751 27.7732 H 0.0 **** 0.0
48817 H 93.1226 22.5083 29.3665 H 0.0 **** 0.0
48818 H 89.7707 27.4726 28.2338 H 0.0 **** 0.0
48819 H 91.6118 28.0554 27.0283 H 0.0 **** 0.0
48820 H 94.0084 28.1283 28.3634 H 0.0 **** 0.0
48821 H 93.3749 27.0356 27.0151 H 0.0 **** 0.0
48822 H 91.4399 26.9046 30.7474 H 0.0 **** 0.0
48823 H 91.7459 33.1177 30.06 H 0.0 **** 0.0
48824 H 93.1189 32.245 29.5255 H 0.0 **** 0.0
48825 H 91.7736 32.5724 27.5466 H 0.0 **** 0.0
48826 H 90.3533 32.0766 28.4567 H 0.0 **** 0.0
48827 H 91.6775 30.3367 26.8575 H 0.0 **** 0.0
48828 H 90.331 25.9536 32.5155 H 0.0 **** 0.0
48829 H 86.0947 26.4703 30.5668 H 0.0 **** 0.0
48830 H 86.7546 24.7309 30.4549 H 0.0 **** 0.0
48831 H 88.0692 26.5004 29.0829 H 0.0 **** 0.0
48832 H 85.0339 25.5693 32.7058 H 0.0 **** 0.0
48833 H 85.9612 23.992 32.9041 H 0.0 **** 0.0
48834 H 85.1918 25.0282 35.1646 H 0.0 **** 0.0
48835 H 85.9695 26.5197 34.7584 H 0.0 **** 0.0
48836 H 90.2944 24.1506 33.8438 H 0.0 **** 0.0
48837 H 90.4399 25.5115 34.868 H 0.0 **** 0.0
48838 H 89.4271 22.7264 35.5794 H 0.0 **** 0.0
48839 H 89.3159 25.374 37.2934 H 0.0 **** 0.0
48840 H 88.9973 23.7313 37.957 H 0.0 **** 0.0
48841 H 86.9983 25.1067 37.289 H 0.0 **** 0.0
48842 H 87.0247 23.4331 36.5978 H 0.0 **** 0.0
48843 H 89.1577 27.3005 35.0834 H 0.0 **** 0.0
48844 H 87.5816 31.2725 38.5461 H 0.0 **** 0.0
48845 H 86.679 33.133 39.8903 H 0.0 **** 0.0
48846 H 91.2025 34.2265 34.5153 H 0.0 **** 0.0
48847 H 85.3097 37.7266 43.6735 H 0.0 **** 0.0
48848 H 86.8241 35.972 43.6853 H 0.0 **** 0.0
48849 H 85.1863 34.1084 41.783 H 0.0 **** 0.0
48850 H 84.6325 33.8438 44.0112 H 0.0 **** 0.0
48851 H 86.2246 34.2324 44.8995 H 0.0 **** 0.0
48852 H 85.1534 36.3126 45.8484 H 0.0 **** 0.0
48853 H 84.2616 34.8545 46.3597 H 0.0 **** 0.0
48854 H 82.5544 35.1538 44.648 H 0.0 **** 0.0
48855 H 83.0252 36.0682 42.6292 H 0.0 **** 0.0
48856 H 83.259 38.8693 43.9554 H 0.0 **** 0.0
48857 H 82.7697 38.4785 42.2829 H 0.0 **** 0.0
48858 H 80.5794 37.4773 43.1952 H 0.0 **** 0.0
48859 H 80.8895 39.0667 43.8596 H 0.0 **** 0.0
48860 H 80.5364 36.5039 45.2752 H 0.0 **** 0.0
48861 H 80.8156 38.1204 45.9191 H 0.0 **** 0.0
48862 H 83.0726 37.8591 45.8595 H 0.0 **** 0.0
48863 H 91.121 39.259 32.962 H 0.0 **** 0.0
48864 H 92.3319 37.4215 31.9848 H 0.0 **** 0.0
48865 H 93.2339 36.7265 34.8308 H 0.0 **** 0.0
48866 H 93.7028 35.9032 33.2553 H 0.0 **** 0.0
48867 H 95.532 37.2268 33.3685 H 0.0 **** 0.0
48868 H 94.7988 38.2204 34.6994 H 0.0 **** 0.0
48869 H 94.3532 38.5525 31.5997 H 0.0 **** 0.0
48870 H 95.3202 39.6925 32.6872 H 0.0 **** 0.0
48871 H 92.9449 40.3331 32.0459 H 0.0 **** 0.0
48872 H 93.4435 40.5638 33.7449 H 0.0 **** 0.0
48873 H 91.5975 40.2372 36.8512 H 0.0 **** 0.0
48874 H 91.5624 41.6529 38.8517 H 0.0 **** 0.0
48875 H 86.5664 39.4867 42.4398 H 0.0 **** 0.0
48876 H 84.9784 42.8023 42.9015 H 0.0 **** 0.0
48877 H 86.3882 44.4097 43.6001 H 0.0 **** 0.0
48878 H 87.1424 42.7966 46.0498 H 0.0 **** 0.0
48879 H 84.4664 44.1195 45.3261 H 0.0 **** 0.0
48880 H 84.8239 43.4208 46.938 H 0.0 **** 0.0
48881 H 83.4879 41.9848 45.2324 H 0.0 **** 0.0
48882 H 84.6402 41.2502 46.3425 H 0.0 **** 0.0
48883 H 84.7064 40.5568 43.7834 H 0.0 **** 0.0
48884 H 86.2264 40.6809 44.6827 H 0.0 **** 0.0
48885 H 91.7618 23.0433 35.2925 H 0.0 **** 0.0
48886 H 93.1921 24.3177 37.0293 H 0.0 **** 0.0
48887 H 91.6514 24.8987 37.7529 H 0.0 **** 0.0
48888 H 92.1324 25.3978 36.0646 H 0.0 **** 0.0
48889 H 91.4086 21.2454 36.5299 H 0.0 **** 0.0
48890 H 90.8392 22.1137 38.0302 H 0.0 **** 0.0
48891 H 92.5296 22.1125 37.5367 H 0.0 **** 0.0
48892 H 87.1037 33.3971 42.8368 H 0.0 **** 0.0
48893 H 92.7976 43.4747 41.7679 H 0.0 **** 0.0
48894 H 94.3106 45.0713 42.9966 H 0.0 **** 0.0
48895 H 94.4972 46.995 44.4979 H 0.0 **** 0.0
48896 H 94.5379 49.0959 45.7272 H 0.0 **** 0.0
48897 H 93.4493 50.4987 47.4774 H 0.0 **** 0.0
48898 H 90.3432 49.306 51.095 H 0.0 **** 0.0
48899 H 92.0391 50.5476 49.7388 H 0.0 **** 0.0
48900 H 85.873 45.2748 47.7227 H 0.0 **** 0.0
48901 H 85.5416 46.693 49.8169 H 0.0 **** 0.0
48902 H 86.1115 44.9233 50.0192 H 0.0 **** 0.0
48903 H 85.5878 45.3522 52.2261 H 0.0 **** 0.0
48904 H 85.9552 47.0737 52.1244 H 0.0 **** 0.0
48905 H 88.1412 44.9502 52.0256 H 0.0 **** 0.0
48906 H 87.7512 45.8866 53.4624 H 0.0 **** 0.0
48907 C 28.145 53.8742 57.649 C 0.0 **** 0.0
48908 C 28.0207 53.8542 59.2147 C 0.0 **** 0.0
48909 C 26.871 54.7276 59.6754 C 0.0 **** 0.0
48910 C 26.9949 56.1721 59.1265 C 0.0 **** 0.0
48911 C 27.6651 56.1111 57.7227 C 0.0 **** 0.0
48912 O 27.4036 54.9105 57.0514 O 0.0 **** 0.0
48913 C 27.7567 57.1319 60.0816 C 0.0 **** 0.0
48914 C 27.2986 57.0524 61.5708 C 0.0 **** 0.0
48915 C 26.2259 55.994 61.7887 C 0.0 **** 0.0
48916 C 26.6747 54.6311 61.1955 C 0.0 **** 0.0
48917 O 26.7921 58.269 62.1294 O 0.0 **** 0.0
48918 C 27.7515 59.2923 62.0472 C 0.0 **** 0.0
48919 C 28.1422 59.6616 60.5519 C 0.0 **** 0.0
48920 C 27.6935 58.5918 59.534 C 0.0 **** 0.0
48921 C 29.6193 60.0412 60.3869 C 0.0 **** 0.0
48922 C 30.5785 59.22 61.0757 C 0.0 **** 0.0
48923 C 30.3695 59.412 62.5531 C 0.0 **** 0.0
48924 C 28.9841 59.1098 63.0611 C 0.0 **** 0.0
48925 C 31.3941 58.8454 63.518 C 0.0 **** 0.0
48926 C 32.8281 58.7479 63.0292 C 0.0 **** 0.0
48927 C 33.0051 58.6154 61.5069 C 0.0 **** 0.0
48928 C 32.0188 59.4756 60.6834 C 0.0 **** 0.0
48929 C 32.3293 60.9652 60.6379 C 0.0 **** 0.0
48930 C 31.4489 61.6609 59.5712 C 0.0 **** 0.0
48931 C 30.0174 61.1973 59.6798 C 0.0 **** 0.0
48932 O 34.3319 58.627 61.0453 O 0.0 **** 0.0
48933 C 34.9857 59.8163 61.468 C 0.0 **** 0.0
48934 C 35.0555 60.0242 62.9712 C 0.0 **** 0.0
48935 C 33.6935 59.8106 63.6116 C 0.0 **** 0.0
48936 C 28.8948 59.8744 64.3769 C 0.0 **** 0.0
48937 C 29.8149 59.3933 65.4834 C 0.0 **** 0.0
48938 C 31.2505 59.5658 64.8846 C 0.0 **** 0.0
48939 C 29.6718 60.183 66.7389 C 0.0 **** 0.0
48940 C 29.2054 61.4596 66.7221 C 0.0 **** 0.0
48941 C 28.4992 62.004 65.5459 C 0.0 **** 0.0
48942 C 28.4181 61.1285 64.3921 C 0.0 **** 0.0
48943 C 29.4404 62.3235 67.9517 C 0.0 **** 0.0
48944 C 30.7404 61.9312 68.6376 C 0.0 **** 0.0
48945 C 30.6843 60.4389 68.9326 C 0.0 **** 0.0
48946 C 30.189 59.6097 67.9939 C 0.0 **** 0.0
48947 C 30.0816 58.0894 68.179 C 0.0 **** 0.0
48948 C 30.1521 57.7223 69.6614 C 0.0 **** 0.0
48949 C 31.3395 58.4387 70.2827 C 0.0 **** 0.0
48950 C 31.0472 59.9334 70.2971 C 0.0 **** 0.0
48951 C 33.7673 59.9755 65.1374 C 0.0 **** 0.0
48952 C 32.4621 59.3666 65.8057 C 0.0 **** 0.0
48953 C 35.4885 61.4739 63.1883 C 0.0 **** 0.0
48954 C 35.4637 61.8562 64.7125 C 0.0 **** 0.0
48955 S 33.7826 61.7308 65.4062 S 0.0 **** 0.0
48956 C 36.0066 63.2756 64.9143 C 0.0 **** 0.0
48957 C 37.4763 63.1858 64.5231 C 0.0 **** 0.0
48958 C 37.6181 62.9977 63.0133 C 0.0 **** 0.0
48959 C 36.9339 61.6484 62.6266 C 0.0 **** 0.0
48960 C 39.078 62.9139 62.6412 C 0.0 **** 0.0
48961 C 40.1036 63.899 63.3302 C 0.0 **** 0.0
48962 C 39.8011 64.0595 64.8211 C 0.0 **** 0.0
48963 C 38.2799 64.3334 65.0286 C 0.0 **** 0.0
48964 C 40.5549 65.2437 65.4846 C 0.0 **** 0.0
48965 C 41.8037 65.746 64.6961 C 0.0 **** 0.0
48966 C 41.4793 66.1047 63.258 C 0.0 **** 0.0
48967 C 40.3554 65.2325 62.5965 C 0.0 **** 0.0
48968 C 36.9077 61.4556 61.1077 C 0.0 **** 0.0
48969 C 36.3309 60.0104 60.761 C 0.0 **** 0.0
48970 C 39.2112 62.861 61.069 C 0.0 **** 0.0
48971 C 38.1976 61.904 60.3375 C 0.0 **** 0.0
48972 C 40.5935 64.9289 61.1238 C 0.0 **** 0.0
48973 C 39.3485 64.2713 60.5036 C 0.0 **** 0.0
48974 C 42.8259 66.1249 62.4605 C 0.0 **** 0.0
48975 C 42.6157 66.3899 60.9683 C 0.0 **** 0.0
48976 C 41.2039 66.1468 60.416 C 0.0 **** 0.0
48977 O 42.3242 66.8273 65.4254 O 0.0 **** 0.0
48978 C 43.1165 66.3086 66.4928 C 0.0 **** 0.0
48979 C 42.4029 65.099 67.3087 C 0.0 **** 0.0
48980 C 40.8908 65.0571 67.0336 C 0.0 **** 0.0
48981 C 42.7972 65.0065 68.7957 C 0.0 **** 0.0
48982 C 44.1982 65.4909 68.993 C 0.0 **** 0.0
48983 C 44.3615 66.9796 68.6482 C 0.0 **** 0.0
48984 C 43.4936 67.4964 67.4207 C 0.0 **** 0.0
48985 C 44.2205 68.6037 66.6329 C 0.0 **** 0.0
48986 C 44.96 69.486 67.6288 C 0.0 **** 0.0
48987 C 46.0364 68.7135 68.4236 C 0.0 **** 0.0
48988 N 45.8063 67.2759 68.4827 N 0.0 **** 0.0
48989 C 38.0735 62.1131 58.8265 C 0.0 **** 0.0
48990 C 38.3324 63.5416 58.3925 C 0.0 **** 0.0
48991 C 39.5745 64.1232 59.012 C 0.0 **** 0.0
48992 O 38.4919 63.4974 56.9937 O 0.0 **** 0.0
48993 C 37.2935 63.0874 56.3666 C 0.0 **** 0.0
48994 C 36.8586 61.7274 56.9002 C 0.0 **** 0.0
48995 O 36.8107 61.7066 58.3247 O 0.0 **** 0.0
48996 C 37.8029 60.6055 56.3874 C 0.0 **** 0.0
48997 C 37.78 60.4411 54.8607 C 0.0 **** 0.0
48998 C 37.1829 61.6841 54.109 C 0.0 **** 0.0
48999 C 37.5131 63.0402 54.8282 C 0.0 **** 0.0
49000 C 41.3233 65.8366 58.895 C 0.0 **** 0.0
49001 C 39.9976 65.4709 58.3195 C 0.0 **** 0.0
49002 C 43.24 67.6643 60.2737 C 0.0 **** 0.0
49003 C 43.446 67.2461 58.7831 C 0.0 **** 0.0
49004 C 42.0691 66.9794 58.1418 C 0.0 **** 0.0
49005 C 44.5238 68.1849 60.9341 C 0.0 **** 0.0
49006 C 45.1066 67.4318 62.1304 C 0.0 **** 0.0
49007 C 43.9638 67.0193 63.072 C 0.0 **** 0.0
49008 O 44.1411 68.168 58.0073 O 0.0 **** 0.0
49009 C 45.4835 68.1486 58.4312 C 0.0 **** 0.0
49010 C 45.5534 68.7217 59.9303 C 0.0 **** 0.0
49011 C 46.1903 68.2556 62.9566 C 0.0 **** 0.0
49012 C 46.9755 69.3382 62.1161 C 0.0 **** 0.0
49013 C 46.9352 68.9183 60.6251 C 0.0 **** 0.0
49014 C 48.4965 69.5297 62.5953 C 0.0 **** 0.0
49015 C 48.6237 69.2912 64.1407 C 0.0 **** 0.0
49016 C 48.2391 67.8287 64.4376 C 0.0 **** 0.0
49017 C 47.209 67.203 63.4888 C 0.0 **** 0.0
49018 C 47.4646 70.0564 59.8342 C 0.0 **** 0.0
49019 C 47.33 69.7633 57.9002 C 0.0 **** 0.0
49020 C 46.3521 68.824 57.3007 C 0.0 **** 0.0
49021 C 49.2125 70.8348 62.0808 C 0.0 **** 0.0
49022 C 48.9446 71.0046 60.6125 C 0.0 **** 0.0
49023 C 30.1431 56.1586 69.9109 C 0.0 **** 0.0
49024 C 31.5542 55.5067 69.962 C 0.0 **** 0.0
49025 C 29.2713 55.7957 71.1358 C 0.0 **** 0.0
49026 O 40.2954 63.8995 67.5693 O 0.0 **** 0.0
49027 C 47.161 67.9018 56.286 C 0.0 **** 0.0
49028 C 47.9916 68.6354 55.1942 C 0.0 **** 0.0
49029 C 49.2953 69.3087 55.7919 C 0.0 **** 0.0
49030 C 48.809 70.4079 56.7153 C 0.0 **** 0.0
49031 C 50.2854 71.4591 57.5121 C 0.0 **** 0.0
49032 C 51.4873 71.681 56.684 C 0.0 **** 0.0
49033 C 51.6086 70.5423 55.6249 C 0.0 **** 0.0
49034 C 50.3209 70.0504 54.8632 C 0.0 **** 0.0
49035 C 52.739 70.9178 54.6591 C 0.0 **** 0.0
49036 C 54.0822 71.0844 55.4817 C 0.0 **** 0.0
49037 C 53.9408 72.02 56.7246 C 0.0 **** 0.0
49038 C 52.7581 71.5818 57.6176 C 0.0 **** 0.0
49039 C 52.7983 72.2112 59.0354 C 0.0 **** 0.0
49040 C 51.7226 71.6298 60.0189 C 0.0 **** 0.0
49041 C 50.3433 71.778 59.4741 C 0.0 **** 0.0
49042 C 54.1628 72.1636 59.7483 C 0.0 **** 0.0
49043 C 55.2177 72.8418 58.7977 C 0.0 **** 0.0
49044 C 55.2629 72.0584 57.4884 C 0.0 **** 0.0
49045 C 50.8125 70.8765 62.2207 C 0.0 **** 0.0
49046 C 51.5571 72.066 61.4711 C 0.0 **** 0.0
49047 C 54.001 72.9135 61.0996 C 0.0 **** 0.0
49048 C 52.9815 72.2079 62.0608 C 0.0 **** 0.0
49049 C 52.9731 72.7968 63.4654 C 0.0 **** 0.0
49050 C 53.6953 74.1293 63.5999 C 0.0 **** 0.0
49051 C 55.1906 73.9609 63.1657 C 0.0 **** 0.0
49052 C 55.3068 73.2047 61.8685 C 0.0 **** 0.0
49053 O 56.4216 72.8248 61.4755 O 0.0 **** 0.0
49054 H 27.737 52.9113 57.2619 H 0.0 **** 0.0
49055 H 29.2169 53.911 57.3175 H 0.0 **** 0.0
49056 H 27.7959 52.777 59.5391 H 0.0 **** 0.0
49057 H 28.9581 54.146 59.7465 H 0.0 **** 0.0
49058 H 25.987 54.2878 59.2193 H 0.0 **** 0.0
49059 H 25.9896 56.5752 59.0166 H 0.0 **** 0.0
49060 H 28.7904 56.2296 57.7929 H 0.0 **** 0.0
49061 H 27.231 56.9584 57.0904 H 0.0 **** 0.0
49062 H 28.8457 56.8518 60.0946 H 0.0 **** 0.0
49063 H 28.2304 56.7197 62.1045 H 0.0 **** 0.0
49064 H 25.2524 56.3132 61.3854 H 0.0 **** 0.0
49065 H 26.117 55.8505 62.862 H 0.0 **** 0.0
49066 H 25.9337 53.8326 61.4044 H 0.0 **** 0.0
49067 H 27.6114 54.3857 61.7427 H 0.0 **** 0.0
49068 H 27.1363 60.1417 62.3392 H 0.0 **** 0.0
49069 H 27.5227 60.5717 60.2961 H 0.0 **** 0.0
49070 H 28.2088 58.7175 58.5554 H 0.0 **** 0.0
49071 H 26.6934 58.81 59.231 H 0.0 **** 0.0
49072 H 28.9822 58.0589 63.354 H 0.0 **** 0.0
49073 H 32.1753 61.3972 61.6558 H 0.0 **** 0.0
49074 H 33.3706 61.1466 60.2576 H 0.0 **** 0.0
49075 H 31.773 61.2432 58.5756 H 0.0 **** 0.0
49076 H 31.6891 62.7534 59.6 H 0.0 **** 0.0
49077 H 29.2465 61.7537 59.186 H 0.0 **** 0.0
49078 H 29.6382 58.3072 65.621 H 0.0 **** 0.0
49079 H 28.9656 62.9347 65.24 H 0.0 **** 0.0
49080 H 27.4554 62.2312 65.8457 H 0.0 **** 0.0
49081 H 28.1145 61.5787 63.4852 H 0.0 **** 0.0
49082 H 29.4632 63.4248 67.7318 H 0.0 **** 0.0
49083 H 28.5625 62.155 68.6342 H 0.0 **** 0.0
49084 H 30.8473 62.5121 69.5823 H 0.0 **** 0.0
49085 H 31.6302 62.1118 67.9955 H 0.0 **** 0.0
49086 H 29.1068 57.7333 67.768 H 0.0 **** 0.0
49087 H 30.8124 57.5917 67.5718 H 0.0 **** 0.0
49088 H 29.2711 58.1519 70.1241 H 0.0 **** 0.0
49089 H 32.2732 58.2771 69.6635 H 0.0 **** 0.0
49090 H 31.505 58.0498 71.3167 H 0.0 **** 0.0
49091 H 31.9746 60.4852 70.5698 H 0.0 **** 0.0
49092 H 30.2639 60.1806 71.0777 H 0.0 **** 0.0
49093 H 32.3183 59.8387 66.7899 H 0.0 **** 0.0
49094 H 35.9617 63.5199 65.9859 H 0.0 **** 0.0
49095 H 38.0788 64.43 66.13 H 0.0 **** 0.0
49096 H 36.186 59.8497 59.6533 H 0.0 **** 0.0
49097 H 44.0367 65.8397 66.1021 H 0.0 **** 0.0
49098 H 42.8343 64.1972 66.8664 H 0.0 **** 0.0
49099 H 40.4432 65.9086 67.5539 H 0.0 **** 0.0
49100 H 42.1415 65.6334 69.4732 H 0.0 **** 0.0
49101 H 42.7239 63.9706 69.1809 H 0.0 **** 0.0
49102 H 44.8922 64.8264 68.382 H 0.0 **** 0.0
49103 H 44.5046 65.3345 70.0213 H 0.0 **** 0.0
49104 H 44.0443 67.5432 69.5596 H 0.0 **** 0.0
49105 H 42.5384 67.8631 67.8581 H 0.0 **** 0.0
49106 H 44.9441 68.2225 65.8628 H 0.0 **** 0.0
49107 H 43.4219 69.2099 66.1371 H 0.0 **** 0.0
49108 H 44.2299 69.8985 68.3406 H 0.0 **** 0.0
49109 H 45.5133 70.286 67.0954 H 0.0 **** 0.0
49110 H 46.0351 69.1856 69.4233 H 0.0 **** 0.0
49111 H 47.0149 68.8337 67.9155 H 0.0 **** 0.0
49112 H 46.2113 66.7436 67.666 H 0.0 **** 0.0
49113 H 36.4584 63.8025 56.6196 H 0.0 **** 0.0
49114 H 35.7905 61.5817 56.5491 H 0.0 **** 0.0
49115 H 38.859 60.7454 56.6929 H 0.0 **** 0.0
49116 H 37.5452 59.6398 56.8578 H 0.0 **** 0.0
49117 H 37.129 59.5118 54.6178 H 0.0 **** 0.0
49118 H 38.7976 60.2066 54.4311 H 0.0 **** 0.0
49119 H 36.0401 61.5873 54.0553 H 0.0 **** 0.0
49120 H 37.5388 61.7156 53.089 H 0.0 **** 0.0
49121 H 36.9144 63.8543 54.3346 H 0.0 **** 0.0
49122 H 38.5754 63.2893 54.5703 H 0.0 **** 0.0
49123 H 40.0119 65.2799 57.1909 H 0.0 **** 0.0
49124 H 42.213 66.7294 57.0565 H 0.0 **** 0.0
49125 H 44.4177 66.3586 63.819 H 0.0 **** 0.0
49126 H 45.6583 68.7406 63.7892 H 0.0 **** 0.0
49127 H 46.4719 70.2979 62.2066 H 0.0 **** 0.0
49128 H 49.0889 68.6788 62.1223 H 0.0 **** 0.0
49129 H 47.9111 69.8807 64.6886 H 0.0 **** 0.0
49130 H 49.6401 69.419 64.5496 H 0.0 **** 0.0
49131 H 47.886 67.6978 65.4665 H 0.0 **** 0.0
49132 H 49.2019 67.2239 64.4142 H 0.0 **** 0.0
49133 H 46.6888 66.3722 63.9171 H 0.0 **** 0.0
49134 H 47.716 66.7965 62.5453 H 0.0 **** 0.0
49135 H 29.6787 55.7264 69.0131 H 0.0 **** 0.0
49136 H 31.4294 54.4542 69.8682 H 0.0 **** 0.0
49137 H 31.9739 55.7904 70.9105 H 0.0 **** 0.0
49138 H 32.1653 55.8837 69.1406 H 0.0 **** 0.0
49139 H 28.2378 56.1488 71.0078 H 0.0 **** 0.0
49140 H 29.7146 56.2676 72.045 H 0.0 **** 0.0
49141 H 29.1652 54.7094 71.2672 H 0.0 **** 0.0
49142 H 40.2047 64.0473 68.5431 H 0.0 **** 0.0
49143 H 47.8231 67.0868 56.7125 H 0.0 **** 0.0
49144 H 47.3655 69.3799 54.6453 H 0.0 **** 0.0
49145 H 50.63 69.3762 53.9788 H 0.0 **** 0.0
49146 H 52.8918 70.1471 53.9082 H 0.0 **** 0.0
49147 H 54.7968 71.6026 54.7658 H 0.0 **** 0.0
49148 H 56.2433 72.7535 59.2023 H 0.0 **** 0.0
49149 H 56.0772 72.4076 56.8219 H 0.0 **** 0.0
49150 H 51.0805 70.8111 63.2763 H 0.0 **** 0.0
49151 H 51.9511 72.9481 63.8027 H 0.0 **** 0.0
49152 H 53.4459 72.1063 64.1927 H 0.0 **** 0.0
49153 H 53.6574 74.4946 64.6286 H 0.0 **** 0.0
49154 H 53.2381 74.9262 62.9638 H 0.0 **** 0.0
49155 H 55.7 73.3883 64.0277 H 0.0 **** 0.0
49156 H 55.6667 75.0256 63.0711 H 0.0 **** 0.0
49157 C 98.8616 89.6838 87.8346 C 0.0 **** 0.0
49158 C 99.0382 89.1447 89.2629 C 0.0 **** 0.0
49159 C 99.3646 87.6403 89.2908 C 0.0 **** 0.0
49160 C 98.3337 86.8474 88.4251 C 0.0 **** 0.0
49161 C 97.6469 87.7944 87.3414 C 0.0 **** 0.0
49162 O 98.5944 88.6936 86.8444 O 0.0 **** 0.0
49163 C 97.3732 86.0277 89.3443 C 0.0 **** 0.0
49164 C 98.0861 85.0264 90.2797 C 0.0 **** 0.0
49165 C 99.4313 85.6097 90.8385 C 0.0 **** 0.0
49166 C 99.526 87.1334 90.7563 C 0.0 **** 0.0
49167 O 98.4118 83.7895 89.7102 O 0.0 **** 0.0
49168 C 97.3692 83.0746 89.0645 C 0.0 **** 0.0
49169 C 96.6006 83.9516 88.0552 C 0.0 **** 0.0
49170 C 96.1878 85.3042 88.6591 C 0.0 **** 0.0
49171 C 95.3856 83.2067 87.4082 C 0.0 **** 0.0
49172 C 94.5748 82.2845 88.1768 C 0.0 **** 0.0
49173 C 95.4696 81.5029 89.1919 C 0.0 **** 0.0
49174 C 96.4602 82.319 90.0689 C 0.0 **** 0.0
49175 C 94.6706 80.4096 89.921 C 0.0 **** 0.0
49176 C 93.9378 79.4844 88.921 C 0.0 **** 0.0
49177 C 93.04 80.2365 87.8885 C 0.0 **** 0.0
49178 C 93.8779 81.2955 87.177 C 0.0 **** 0.0
49179 C 93.0214 82.0563 86.1859 C 0.0 **** 0.0
49180 C 93.8702 83.0068 85.3203 C 0.0 **** 0.0
49181 C 95.0618 83.5637 86.0886 C 0.0 **** 0.0
49182 O 92.4477 79.3848 86.9642 O 0.0 **** 0.0
49183 C 91.4995 78.5775 87.6274 C 0.0 **** 0.0
49184 C 92.2501 77.6645 88.5846 C 0.0 **** 0.0
49185 C 93.0592 78.4703 89.6556 C 0.0 **** 0.0
49186 C 97.2431 81.3327 90.9799 C 0.0 **** 0.0
49187 C 96.4103 80.3687 91.7956 C 0.0 **** 0.0
49188 C 95.5896 79.5228 90.7776 C 0.0 **** 0.0
49189 C 97.1632 79.5926 92.8297 C 0.0 **** 0.0
49190 C 98.4951 79.3404 92.6588 C 0.0 **** 0.0
49191 C 99.3084 79.9315 91.5018 C 0.0 **** 0.0
49192 C 98.609 81.1113 90.9177 C 0.0 **** 0.0
49193 C 99.2143 78.4733 93.6254 C 0.0 **** 0.0
49194 C 98.3421 77.2736 94.0173 C 0.0 **** 0.0
49195 C 96.9632 77.7302 94.4615 C 0.0 **** 0.0
49196 C 96.4398 78.897 93.949 C 0.0 **** 0.0
49197 C 95.1347 79.4682 94.552 C 0.0 **** 0.0
49198 C 94.7269 78.875 95.9156 C 0.0 **** 0.0
49199 C 94.8697 77.3706 95.8136 C 0.0 **** 0.0
49200 C 96.297 76.9214 95.4947 C 0.0 **** 0.0
49201 C 93.9456 77.5214 90.4069 C 0.0 **** 0.0
49202 C 94.8961 78.2665 91.3548 C 0.0 **** 0.0
49203 C 91.3465 76.6462 89.2415 C 0.0 **** 0.0
49204 C 91.3327 76.6903 90.7559 C 0.0 **** 0.0
49205 S 92.9832 76.3045 91.4141 S 0.0 **** 0.0
49206 C 90.2103 75.7522 91.2714 C 0.0 **** 0.0
49207 C 89.97 74.4824 90.4569 C 0.0 **** 0.0
49208 C 89.781 74.7723 88.9664 C 0.0 **** 0.0
49209 C 90.0539 76.2321 88.542 C 0.0 **** 0.0
49210 C 88.5348 74.2361 88.2648 C 0.0 **** 0.0
49211 C 87.6896 73.1282 88.9657 C 0.0 **** 0.0
49212 C 88.2453 72.6773 90.2992 C 0.0 **** 0.0
49213 C 88.7424 73.8848 91.0779 C 0.0 **** 0.0
49214 C 87.2581 71.8539 91.1363 C 0.0 **** 0.0
49215 C 86.3464 70.9007 90.2973 C 0.0 **** 0.0
49216 C 86.0934 71.2667 88.7794 C 0.0 **** 0.0
49217 C 87.3412 71.907 88.1217 C 0.0 **** 0.0
49218 C 90.2099 76.3283 87.0082 C 0.0 **** 0.0
49219 C 90.5858 77.8062 86.6284 C 0.0 **** 0.0
49220 C 88.9724 74.1191 86.7994 C 0.0 **** 0.0
49221 C 89.0949 75.5531 86.2054 C 0.0 **** 0.0
49222 C 86.9532 72.3994 86.7137 C 0.0 **** 0.0
49223 C 88.0831 73.1427 85.9966 C 0.0 **** 0.0
49224 C 85.5106 70.1315 87.8928 C 0.0 **** 0.0
49225 C 85.2146 70.6215 86.4784 C 0.0 **** 0.0
49226 C 86.4285 71.2419 85.8283 C 0.0 **** 0.0
49227 O 86.707 69.5493 90.518 O 0.0 **** 0.0
49228 C 86.4104 69.1824 91.8529 C 0.0 **** 0.0
49229 C 87.2794 69.9665 92.8348 C 0.0 **** 0.0
49230 C 88.1433 71.0465 92.1344 C 0.0 **** 0.0
49231 C 88.1873 69.0356 93.6975 C 0.0 **** 0.0
49232 C 87.4185 67.9538 94.4258 C 0.0 **** 0.0
49233 C 86.5585 67.1267 93.489 C 0.0 **** 0.0
49234 C 86.4861 67.6473 92.02 C 0.0 **** 0.0
49235 C 85.2916 66.9752 91.2935 C 0.0 **** 0.0
49236 C 84.7444 65.6868 91.9225 C 0.0 **** 0.0
49237 C 84.5363 65.8201 93.4796 C 0.0 **** 0.0
49238 N 85.2217 67.0249 94.0472 N 0.0 **** 0.0
49239 C 89.2356 75.4986 84.6316 C 0.0 **** 0.0
49240 C 88.751 74.28 83.8907 C 0.0 **** 0.0
49241 C 87.6108 73.6409 84.5873 C 0.0 **** 0.0
49242 O 88.3356 74.7407 82.6373 O 0.0 **** 0.0
49243 C 89.5089 75.13 81.9526 C 0.0 **** 0.0
49244 C 90.3134 76.2399 82.7516 C 0.0 **** 0.0
49245 O 90.4859 75.9024 84.1195 O 0.0 **** 0.0
49246 C 89.8095 77.6817 82.5711 C 0.0 **** 0.0
49247 C 89.4657 78.0011 81.0744 C 0.0 **** 0.0
49248 C 89.7352 76.8416 80.0626 C 0.0 **** 0.0
49249 C 89.1182 75.5222 80.5056 C 0.0 **** 0.0
49250 C 85.9725 71.7649 84.4013 C 0.0 **** 0.0
49251 C 87.166 72.4143 83.7338 C 0.0 **** 0.0
49252 C 84.5759 69.5434 85.6335 C 0.0 **** 0.0
49253 C 84.3577 69.8723 84.1702 C 0.0 **** 0.0
49254 C 85.5301 70.5757 83.5329 C 0.0 **** 0.0
49255 C 83.2445 69.1036 86.2264 C 0.0 **** 0.0
49256 C 83.4472 68.5656 87.6218 C 0.0 **** 0.0
49257 C 84.2031 69.5646 88.5372 C 0.0 **** 0.0
49258 O 83.9569 68.7121 83.4509 O 0.0 **** 0.0
49259 C 82.6198 68.3932 83.8162 C 0.0 **** 0.0
49260 C 82.5878 68.0505 85.3568 C 0.0 **** 0.0
49261 C 82.1951 67.9906 88.2928 C 0.0 **** 0.0
49262 C 81.19 67.2925 87.2835 C 0.0 **** 0.0
49263 C 81.1903 67.8415 85.8188 C 0.0 **** 0.0
49264 C 79.7299 67.2087 87.8133 C 0.0 **** 0.0
49265 C 79.7409 67.0142 89.3407 C 0.0 **** 0.0
49266 C 80.4155 68.154 90.1062 C 0.0 **** 0.0
49267 C 81.4668 68.9342 89.2409 C 0.0 **** 0.0
49268 C 80.427 66.7891 84.961 C 0.0 **** 0.0
49269 C 80.5 67.082 83.4361 C 0.0 **** 0.0
49270 C 81.966 67.2273 83.0161 C 0.0 **** 0.0
49271 C 78.998 66.1381 86.9376 C 0.0 **** 0.0
49272 C 78.9962 66.5617 85.4682 C 0.0 **** 0.0
49273 C 93.2604 79.2687 96.4112 C 0.0 **** 0.0
49274 C 93.0465 79.0036 97.9628 C 0.0 **** 0.0
49275 C 92.922 80.7506 96.0396 C 0.0 **** 0.0
49276 O 88.6066 71.9844 93.1008 O 0.0 **** 0.0
49277 C 82.0627 67.3797 81.5185 C 0.0 **** 0.0
49278 C 81.226 66.3814 80.6945 C 0.0 **** 0.0
49279 C 79.7787 66.3339 81.1255 C 0.0 **** 0.0
49280 C 79.7341 66.0097 82.6561 C 0.0 **** 0.0
49281 C 78.314 65.7933 83.1544 C 0.0 **** 0.0
49282 C 77.713 64.6165 82.333 C 0.0 **** 0.0
49283 C 77.621 65.0178 80.8367 C 0.0 **** 0.0
49284 C 79.0193 65.2912 80.2843 C 0.0 **** 0.0
49285 C 77.0326 63.8836 80.0054 C 0.0 **** 0.0
49286 C 75.7218 63.3604 80.5775 C 0.0 **** 0.0
49287 C 75.9193 62.9612 82.0428 C 0.0 **** 0.0
49288 C 76.3219 64.1991 82.8217 C 0.0 **** 0.0
49289 C 76.3766 63.8247 84.3057 C 0.0 **** 0.0
49290 C 76.9039 65.0199 85.145 C 0.0 **** 0.0
49291 C 78.3263 65.3993 84.6357 C 0.0 **** 0.0
49292 C 75.1056 63.1627 84.844 C 0.0 **** 0.0
49293 C 74.7726 61.9219 84.0058 C 0.0 **** 0.0
49294 C 74.6422 62.3292 82.5427 C 0.0 **** 0.0
49295 C 77.5512 65.8926 87.3953 C 0.0 **** 0.0
49296 C 76.9799 64.7026 86.6235 C 0.0 **** 0.0
49297 C 75.0668 62.9653 86.3558 C 0.0 **** 0.0
49298 C 75.6366 64.1695 87.1795 C 0.0 **** 0.0
49299 C 75.7273 63.7761 88.6723 C 0.0 **** 0.0
49300 C 74.7285 62.7165 89.1865 C 0.0 **** 0.0
49301 C 73.4095 62.7659 88.3926 C 0.0 **** 0.0
49302 C 73.6757 62.7299 86.8639 C 0.0 **** 0.0
49303 O 72.6994 62.8019 86.1183 O 0.0 **** 0.0
49304 H 99.7668 90.25 87.5068 H 0.0 **** 0.0
49305 H 98.0845 90.4742 87.8001 H 0.0 **** 0.0
49306 H 99.9215 89.6492 89.7617 H 0.0 **** 0.0
49307 H 98.1568 89.3003 89.8663 H 0.0 **** 0.0
49308 H 100.39 87.4928 88.7675 H 0.0 **** 0.0
49309 H 98.9105 86.1019 87.8008 H 0.0 **** 0.0
49310 H 96.8047 88.3603 87.7729 H 0.0 **** 0.0
49311 H 97.218 87.2448 86.4629 H 0.0 **** 0.0
49312 H 96.8612 86.7751 90.0355 H 0.0 **** 0.0
49313 H 97.4188 84.8667 91.0991 H 0.0 **** 0.0
49314 H 100.345 85.2467 90.2758 H 0.0 **** 0.0
49315 H 99.5007 85.253 91.8656 H 0.0 **** 0.0
49316 H 100.497 87.4681 91.1922 H 0.0 **** 0.0
49317 H 98.7153 87.59 91.3768 H 0.0 **** 0.0
49318 H 97.8992 82.2794 88.4057 H 0.0 **** 0.0
49319 H 97.3105 84.1242 87.2367 H 0.0 **** 0.0
49320 H 95.4219 85.1985 89.484 H 0.0 **** 0.0
49321 H 95.8172 85.9488 87.8482 H 0.0 **** 0.0
49322 H 95.8585 82.9707 90.7382 H 0.0 **** 0.0
49323 H 92.4498 81.3565 85.521 H 0.0 **** 0.0
49324 H 92.26 82.6928 86.6633 H 0.0 **** 0.0
49325 H 93.2481 83.8268 84.8869 H 0.0 **** 0.0
49326 H 94.2575 82.4806 84.4647 H 0.0 **** 0.0
49327 H 95.6186 84.3224 85.552 H 0.0 **** 0.0
49328 H 95.6405 80.9333 92.3914 H 0.0 **** 0.0
49329 H 99.5404 79.2377 90.6753 H 0.0 **** 0.0
49330 H 100.23 80.2927 91.901 H 0.0 **** 0.0
49331 H 99.2804 81.737 90.3581 H 0.0 **** 0.0
49332 H 100.172 78.0539 93.1715 H 0.0 **** 0.0
49333 H 99.5219 79.0212 94.5267 H 0.0 **** 0.0
49334 H 98.9111 76.7042 94.8103 H 0.0 **** 0.0
49335 H 98.2477 76.6185 93.1457 H 0.0 **** 0.0
49336 H 95.3143 80.5219 94.7878 H 0.0 **** 0.0
49337 H 94.3267 79.3497 93.8448 H 0.0 **** 0.0
49338 H 95.4917 79.2302 96.6729 H 0.0 **** 0.0
49339 H 94.1148 76.9341 95.1542 H 0.0 **** 0.0
49340 H 94.5905 76.9214 96.7918 H 0.0 **** 0.0
49341 H 96.1977 75.9018 95.1533 H 0.0 **** 0.0
49342 H 96.9405 76.8965 96.4531 H 0.0 **** 0.0
49343 H 95.6795 77.5378 91.6568 H 0.0 **** 0.0
49344 H 90.263 75.5484 92.3439 H 0.0 **** 0.0
49345 H 87.8842 74.6281 91.1785 H 0.0 **** 0.0
49346 H 90.9755 77.8607 85.5752 H 0.0 **** 0.0
49347 H 85.3402 69.564 92.0752 H 0.0 **** 0.0
49348 H 86.5969 70.5567 93.4894 H 0.0 **** 0.0
49349 H 89.0114 70.5894 91.5971 H 0.0 **** 0.0
49350 H 88.967 68.5685 93.0581 H 0.0 **** 0.0
49351 H 88.7093 69.7023 94.4143 H 0.0 **** 0.0
49352 H 86.7709 68.4865 95.1753 H 0.0 **** 0.0
49353 H 88.1101 67.3386 94.9768 H 0.0 **** 0.0
49354 H 86.9757 66.0497 93.4799 H 0.0 **** 0.0
49355 H 87.4357 67.3193 91.5087 H 0.0 **** 0.0
49356 H 84.4446 67.6852 91.3076 H 0.0 **** 0.0
49357 H 85.5303 66.8558 90.2388 H 0.0 **** 0.0
49358 H 85.4901 64.9046 91.6552 H 0.0 **** 0.0
49359 H 83.7855 65.44 91.4279 H 0.0 **** 0.0
49360 H 84.8977 64.9328 93.9674 H 0.0 **** 0.0
49361 H 83.4911 65.9164 93.7276 H 0.0 **** 0.0
49362 H 84.7095 67.8384 93.7832 H 0.0 **** 0.0
49363 H 90.2173 74.2691 81.8908 H 0.0 **** 0.0
49364 H 91.3747 76.2111 82.3515 H 0.0 **** 0.0
49365 H 88.9705 77.9198 83.243 H 0.0 **** 0.0
49366 H 90.6516 78.3464 82.9401 H 0.0 **** 0.0
49367 H 90.0155 78.9037 80.746 H 0.0 **** 0.0
49368 H 88.3723 78.2071 81.0213 H 0.0 **** 0.0
49369 H 90.844 76.7242 80.0095 H 0.0 **** 0.0
49370 H 89.3237 77.0867 79.0844 H 0.0 **** 0.0
49371 H 89.394 74.6971 79.8124 H 0.0 **** 0.0
49372 H 88.0326 75.6349 80.422 H 0.0 **** 0.0
49373 H 86.855 72.7064 82.7005 H 0.0 **** 0.0
49374 H 85.1341 71.0133 82.5471 H 0.0 **** 0.0
49375 H 84.4604 69.2385 89.5419 H 0.0 **** 0.0
49376 H 82.5777 67.2501 88.9643 H 0.0 **** 0.0
49377 H 81.5539 66.2428 87.1557 H 0.0 **** 0.0
49378 H 79.2865 68.2107 87.6527 H 0.0 **** 0.0
49379 H 80.2897 66.0794 89.4231 H 0.0 **** 0.0
49380 H 78.7828 66.8799 89.8065 H 0.0 **** 0.0
49381 H 80.8622 67.7046 91.0236 H 0.0 **** 0.0
49382 H 79.6986 68.9035 90.575 H 0.0 **** 0.0
49383 H 82.1884 69.3299 89.9759 H 0.0 **** 0.0
49384 H 81.0769 69.7637 88.7144 H 0.0 **** 0.0
49385 H 92.5143 78.6381 95.8673 H 0.0 **** 0.0
49386 H 92.1291 79.3735 98.3627 H 0.0 **** 0.0
49387 H 93.8539 79.4227 98.5602 H 0.0 **** 0.0
49388 H 93.0488 77.9194 98.1838 H 0.0 **** 0.0
49389 H 93.7673 81.3804 96.3118 H 0.0 **** 0.0
49390 H 92.0489 81.0481 96.7008 H 0.0 **** 0.0
49391 H 92.6804 80.8672 94.9599 H 0.0 **** 0.0
49392 H 89.5904 71.9509 93.1252 H 0.0 **** 0.0
49393 H 81.6712 68.4001 81.3056 H 0.0 **** 0.0
49394 H 81.7341 65.3751 80.638 H 0.0 **** 0.0
49395 H 79.5713 64.3185 80.3179 H 0.0 **** 0.0
49396 H 76.8311 64.0893 78.9246 H 0.0 **** 0.0
49397 H 75.4397 62.4781 79.9833 H 0.0 **** 0.0
49398 H 73.7685 61.4133 84.3246 H 0.0 **** 0.0
49399 H 74.3615 61.4258 81.9557 H 0.0 **** 0.0
49400 H 77.5346 65.7873 88.4985 H 0.0 **** 0.0
49401 H 76.776 63.4625 88.9672 H 0.0 **** 0.0
49402 H 75.4961 64.6982 89.2731 H 0.0 **** 0.0
49403 H 74.4966 62.8942 90.2819 H 0.0 **** 0.0
49404 H 75.1558 61.6895 89.0866 H 0.0 **** 0.0
49405 H 72.8725 63.7114 88.6485 H 0.0 **** 0.0
49406 H 72.7712 61.9141 88.6596 H 0.0 **** 0.0
49407 C 42.8195 57.4066 29.6858 C 0.0 **** 0.0
49408 C 43.907 58.325 29.1195 C 0.0 **** 0.0
49409 C 43.3577 59.7225 28.8389 C 0.0 **** 0.0
49410 C 42.0977 59.6959 27.8994 C 0.0 **** 0.0
49411 C 41.4249 58.3003 28.0327 C 0.0 **** 0.0
49412 O 41.5068 57.8638 29.3706 O 0.0 **** 0.0
49413 C 42.544 59.9874 26.4702 C 0.0 **** 0.0
49414 C 43.1732 61.4147 26.3734 C 0.0 **** 0.0
49415 C 43.9677 61.8431 27.636 C 0.0 **** 0.0
49416 C 44.5227 60.6468 28.3906 C 0.0 **** 0.0
49417 O 42.1571 62.4052 26.1691 O 0.0 **** 0.0
49418 C 41.2877 62.2115 25.0722 C 0.0 **** 0.0
49419 C 40.5128 60.8929 25.1938 C 0.0 **** 0.0
49420 C 41.459 59.698 25.3482 C 0.0 **** 0.0
49421 C 39.6275 60.7927 23.886 C 0.0 **** 0.0
49422 C 40.242 60.8878 22.6235 C 0.0 **** 0.0
49423 C 41.0591 62.2029 22.5443 C 0.0 **** 0.0
49424 C 42.026 62.3532 23.7063 C 0.0 **** 0.0
49425 C 41.8617 62.257 21.207 C 0.0 **** 0.0
49426 C 40.9202 62.1915 20.0072 C 0.0 **** 0.0
49427 C 40.099 60.8791 20.0394 C 0.0 **** 0.0
49428 C 39.3271 60.7219 21.3787 C 0.0 **** 0.0
49429 C 38.1701 61.6895 21.5043 C 0.0 **** 0.0
49430 C 37.3695 61.3232 22.7584 C 0.0 **** 0.0
49431 C 38.2633 61.022 23.9979 C 0.0 **** 0.0
49432 O 39.3846 60.6085 18.7962 O 0.0 **** 0.0
49433 C 39.3624 61.7042 17.9025 C 0.0 **** 0.0
49434 C 40.7484 62.1686 17.5022 C 0.0 **** 0.0
49435 C 41.6929 62.2499 18.6929 C 0.0 **** 0.0
49436 C 42.7941 63.6297 23.4825 C 0.0 **** 0.0
49437 C 43.7129 63.5778 22.2927 C 0.0 **** 0.0
49438 C 42.8361 63.4338 21.0861 C 0.0 **** 0.0
49439 C 44.6483 64.7643 22.2651 C 0.0 **** 0.0
49440 C 44.198 65.9926 22.6069 C 0.0 **** 0.0
49441 C 42.8907 66.1384 23.3913 C 0.0 **** 0.0
49442 C 42.3786 64.8265 23.9459 C 0.0 **** 0.0
49443 C 44.9493 67.2446 22.1416 C 0.0 **** 0.0
49444 C 46.0544 66.9089 21.097 C 0.0 **** 0.0
49445 C 46.7774 65.6366 21.5024 C 0.0 **** 0.0
49446 C 46.1042 64.6061 22.0282 C 0.0 **** 0.0
49447 C 46.6543 63.2772 22.4665 C 0.0 **** 0.0
49448 C 48.1989 63.2363 22.4367 C 0.0 **** 0.0
49449 C 48.7115 64.0798 21.2781 C 0.0 **** 0.0
49450 C 48.2937 65.5549 21.3285 C 0.0 **** 0.0
49451 C 42.5587 63.5019 18.6384 C 0.0 **** 0.0
49452 C 43.6263 63.3228 19.736 C 0.0 **** 0.0
49453 C 40.6085 63.432 16.6334 C 0.0 **** 0.0
49454 C 41.9534 63.8758 16.0437 C 0.0 **** 0.0
49455 S 43.4604 63.626 17.0833 S 0.0 **** 0.0
49456 C 41.8264 65.3296 15.5137 C 0.0 **** 0.0
49457 C 40.8572 65.2271 14.3204 C 0.0 **** 0.0
49458 C 39.4924 64.5992 14.6946 C 0.0 **** 0.0
49459 C 39.6508 63.2781 15.4704 C 0.0 **** 0.0
49460 C 38.6234 64.356 13.444 C 0.0 **** 0.0
49461 C 38.3685 65.739 12.8856 C 0.0 **** 0.0
49462 C 39.6241 66.572 12.5527 C 0.0 **** 0.0
49463 C 40.666 66.5842 13.7138 C 0.0 **** 0.0
49464 C 39.1302 67.9915 12.0778 C 0.0 **** 0.0
49465 C 38.1071 67.8763 10.936 C 0.0 **** 0.0
49466 C 37.7081 66.4939 10.4927 C 0.0 **** 0.0
49467 C 37.2749 65.8272 11.7945 C 0.0 **** 0.0
49468 C 38.316 62.7011 15.9148 C 0.0 **** 0.0
49469 C 38.529 61.3918 16.7086 C 0.0 **** 0.0
49470 C 37.3114 63.7693 13.842 C 0.0 **** 0.0
49471 C 37.4266 62.5203 14.6714 C 0.0 **** 0.0
49472 C 36.6479 64.4711 11.4798 C 0.0 **** 0.0
49473 C 36.4638 63.4645 12.646 C 0.0 **** 0.0
49474 C 36.5305 66.5405 9.41987 C 0.0 **** 0.0
49475 C 35.654 65.302 9.37531 C 0.0 **** 0.0
49476 C 35.3405 64.7761 10.7679 C 0.0 **** 0.0
49477 O 38.34 68.8056 9.88234 O 0.0 **** 0.0
49478 C 39.6425 68.6347 9.25348 C 0.0 **** 0.0
49479 C 40.7982 68.5282 10.3409 C 0.0 **** 0.0
49480 C 40.2516 68.9877 11.6929 C 0.0 **** 0.0
49481 C 42.1309 69.1927 9.96062 C 0.0 **** 0.0
49482 C 42.4038 68.9851 8.48566 C 0.0 **** 0.0
49483 C 41.3329 69.765 7.66952 C 0.0 **** 0.0
49484 C 39.9703 69.9009 8.39725 C 0.0 **** 0.0
49485 C 38.8222 70.1969 7.40986 C 0.0 **** 0.0
49486 C 39.3396 70.8758 6.13608 C 0.0 **** 0.0
49487 C 40.4199 69.9943 5.44649 C 0.0 **** 0.0
49488 N 41.1485 69.1098 6.3853 N 0.0 **** 0.0
49489 C 36.1102 61.8221 14.9419 C 0.0 **** 0.0
49490 C 34.8156 62.3763 14.2957 C 0.0 **** 0.0
49491 C 35.0064 63.362 13.1949 C 0.0 **** 0.0
49492 O 33.8999 61.329 13.9857 O 0.0 **** 0.0
49493 C 33.8917 60.4366 15.1098 C 0.0 **** 0.0
49494 C 35.2629 59.7073 15.153 C 0.0 **** 0.0
49495 O 36.2976 60.4617 14.6106 O 0.0 **** 0.0
49496 C 35.2155 58.3827 14.3973 C 0.0 **** 0.0
49497 C 34.3007 57.4226 15.1282 C 0.0 **** 0.0
49498 C 33.0165 58.0999 15.7173 C 0.0 **** 0.0
49499 C 32.7241 59.4742 15.1158 C 0.0 **** 0.0
49500 C 34.4944 63.5299 10.6997 C 0.0 **** 0.0
49501 C 33.9385 63.3205 12.1096 C 0.0 **** 0.0
49502 C 34.3148 65.5755 8.66415 C 0.0 **** 0.0
49503 C 33.494 64.3066 8.46341 C 0.0 **** 0.0
49504 C 33.2712 63.6563 9.80958 C 0.0 **** 0.0
49505 C 34.5567 66.063 7.21849 C 0.0 **** 0.0
49506 C 35.5152 67.2946 7.16832 C 0.0 **** 0.0
49507 C 36.8614 67.0967 8.01489 C 0.0 **** 0.0
49508 O 32.2473 64.6624 7.97316 O 0.0 **** 0.0
49509 C 32.3773 65.0349 6.60379 C 0.0 **** 0.0
49510 C 33.1821 66.3614 6.52592 C 0.0 **** 0.0
49511 C 35.5945 68.0327 5.75758 C 0.0 **** 0.0
49512 C 34.2707 67.9493 4.85212 C 0.0 **** 0.0
49513 C 33.4326 66.6821 5.04759 C 0.0 **** 0.0
49514 C 34.612 68.0521 3.32125 C 0.0 **** 0.0
49515 C 35.7432 69.0503 3.13798 C 0.0 **** 0.0
49516 C 37.0575 68.4545 3.70252 C 0.0 **** 0.0
49517 C 36.8101 67.5632 4.95668 C 0.0 **** 0.0
49518 C 32.1187 66.9526 4.31723 C 0.0 **** 0.0
49519 C 31.1668 65.8069 4.45997 C 0.0 **** 0.0
49520 C 31.0322 65.0999 5.83884 C 0.0 **** 0.0
49521 C 33.3972 68.2763 2.40831 C 0.0 **** 0.0
49522 C 32.3606 67.1916 2.76516 C 0.0 **** 0.0
49523 C 48.697 61.736 22.439 C 0.0 **** 0.0
49524 C 48.7898 61.0527 21.0095 C 0.0 **** 0.0
49525 C 49.9922 61.5719 23.3048 C 0.0 **** 0.0
49526 O 41.2778 69.0862 12.6693 O 0.0 **** 0.0
49527 C 29.8786 65.6383 6.65091 C 0.0 **** 0.0
49528 C 28.5442 65.6454 5.90144 C 0.0 **** 0.0
49529 C 28.6426 65.5099 4.37752 C 0.0 **** 0.0
49530 C 29.8186 66.3664 3.89095 C 0.0 **** 0.0
49531 C 29.9155 66.4446 2.3641 C 0.0 **** 0.0
49532 C 28.5698 66.9406 1.74178 C 0.0 **** 0.0
49533 C 27.4728 65.9881 2.18577 C 0.0 **** 0.0
49534 C 27.3125 65.9026 3.71837 C 0.0 **** 0.0
49535 C 26.127 66.393 1.53099 C 0.0 **** 0.0
49536 C 26.2445 66.5724 -0.0183112 C 0.0 **** 0.0
49537 C 27.3811 67.4841 -0.39143 C 0.0 **** 0.0
49538 C 28.7091 66.9746 0.222085 C 0.0 **** 0.0
49539 C 29.9075 67.883 -0.241931 C 0.0 **** 0.0
49540 C 31.2316 67.4947 0.489804 C 0.0 **** 0.0
49541 C 31.0681 67.4602 2.01421 C 0.0 **** 0.0
49542 C 30.0106 67.8864 -1.75072 C 0.0 **** 0.0
49543 C 28.7193 68.5282 -2.2679 C 0.0 **** 0.0
49544 C 27.4834 67.7139 -1.92526 C 0.0 **** 0.0
49545 C 33.6737 68.1507 0.872555 C 0.0 **** 0.0
49546 C 32.3592 68.4551 0.0660697 C 0.0 **** 0.0
49547 C 31.2559 68.592 -2.23381 C 0.0 **** 0.0
49548 C 32.5459 68.2335 -1.46898 C 0.0 **** 0.0
49549 C 33.9005 68.6595 -2.09213 C 0.0 **** 0.0
49550 C 33.8477 69.1614 -3.51069 C 0.0 **** 0.0
49551 C 32.8597 68.3487 -4.36666 C 0.0 **** 0.0
49552 C 31.4825 68.3965 -3.74889 C 0.0 **** 0.0
49553 O 30.5694 68.3083 -4.5324 O 0.0 **** 0.0
49554 H 42.9705 57.3601 30.7874 H 0.0 **** 0.0
49555 H 42.9311 56.3917 29.25 H 0.0 **** 0.0
49556 H 44.7622 58.3431 29.8131 H 0.0 **** 0.0
49557 H 44.1611 57.8377 28.1248 H 0.0 **** 0.0
49558 H 42.957 60.1014 29.8019 H 0.0 **** 0.0
49559 H 41.3132 60.4513 28.2785 H 0.0 **** 0.0
49560 H 41.8023 57.6126 27.3005 H 0.0 **** 0.0
49561 H 40.3863 58.47 27.772 H 0.0 **** 0.0
49562 H 43.4285 59.3457 26.2685 H 0.0 **** 0.0
49563 H 43.9568 61.4488 25.5235 H 0.0 **** 0.0
49564 H 43.3364 62.4608 28.3055 H 0.0 **** 0.0
49565 H 44.8989 62.4113 27.2807 H 0.0 **** 0.0
49566 H 45.1205 60.9342 29.3209 H 0.0 **** 0.0
49567 H 45.2051 60.1431 27.7455 H 0.0 **** 0.0
49568 H 40.5554 63.0389 25.1682 H 0.0 **** 0.0
49569 H 39.8853 60.9937 26.1221 H 0.0 **** 0.0
49570 H 41.938 59.4651 24.3269 H 0.0 **** 0.0
49571 H 40.829 58.8269 25.5911 H 0.0 **** 0.0
49572 H 42.8334 61.5278 23.6524 H 0.0 **** 0.0
49573 H 38.5703 62.7378 21.6341 H 0.0 **** 0.0
49574 H 37.5184 61.6647 20.6178 H 0.0 **** 0.0
49575 H 36.7749 60.4043 22.5582 H 0.0 **** 0.0
49576 H 36.6037 62.1293 22.9705 H 0.0 **** 0.0
49577 H 37.8403 61.1141 24.9928 H 0.0 **** 0.0
49578 H 44.2655 62.6435 22.4562 H 0.0 **** 0.0
49579 H 42.0888 66.584 22.7208 H 0.0 **** 0.0
49580 H 43.0641 66.8089 24.2472 H 0.0 **** 0.0
49581 H 41.552 64.8606 24.6081 H 0.0 **** 0.0
49582 H 44.2114 67.9377 21.6922 H 0.0 **** 0.0
49583 H 45.4076 67.6386 23.0606 H 0.0 **** 0.0
49584 H 46.7711 67.7437 21.2013 H 0.0 **** 0.0
49585 H 45.6482 66.8156 20.0801 H 0.0 **** 0.0
49586 H 46.3021 62.9826 23.4888 H 0.0 **** 0.0
49587 H 46.283 62.5409 21.7778 H 0.0 **** 0.0
49588 H 48.6087 63.7383 23.3704 H 0.0 **** 0.0
49589 H 48.3938 63.6529 20.3363 H 0.0 **** 0.0
49590 H 49.8156 64.0374 21.3062 H 0.0 **** 0.0
49591 H 48.6268 66.0975 20.4648 H 0.0 **** 0.0
49592 H 48.7511 66.0255 22.2476 H 0.0 **** 0.0
49593 H 44.3102 64.2096 19.618 H 0.0 **** 0.0
49594 H 42.8344 65.6599 15.1823 H 0.0 **** 0.0
49595 H 41.6317 66.8322 13.2597 H 0.0 **** 0.0
49596 H 37.5394 60.9761 17.064 H 0.0 **** 0.0
49597 H 39.6201 67.652 8.67165 H 0.0 **** 0.0
49598 H 41.0423 67.4598 10.3921 H 0.0 **** 0.0
49599 H 39.8211 69.9925 11.5731 H 0.0 **** 0.0
49600 H 42.1219 70.2704 10.2044 H 0.0 **** 0.0
49601 H 42.9562 68.7565 10.5494 H 0.0 **** 0.0
49602 H 42.3799 67.8864 8.2497 H 0.0 **** 0.0
49603 H 43.3889 69.362 8.17489 H 0.0 **** 0.0
49604 H 41.7295 70.7685 7.45827 H 0.0 **** 0.0
49605 H 40.0688 70.7362 9.08229 H 0.0 **** 0.0
49606 H 38.3527 69.2178 7.14604 H 0.0 **** 0.0
49607 H 38.0286 70.8186 7.85661 H 0.0 **** 0.0
49608 H 39.7507 71.8232 6.40469 H 0.0 **** 0.0
49609 H 38.4527 71.0199 5.39499 H 0.0 **** 0.0
49610 H 41.18 70.6533 4.96928 H 0.0 **** 0.0
49611 H 39.939 69.3486 4.67235 H 0.0 **** 0.0
49612 H 40.6189 68.225 6.5195 H 0.0 **** 0.0
49613 H 33.8173 61.0614 16.0601 H 0.0 **** 0.0
49614 H 35.5137 59.5007 16.2547 H 0.0 **** 0.0
49615 H 34.8567 58.5505 13.3504 H 0.0 **** 0.0
49616 H 36.2454 57.9652 14.3536 H 0.0 **** 0.0
49617 H 34.8319 56.8741 15.9089 H 0.0 **** 0.0
49618 H 34.0288 56.6118 14.4336 H 0.0 **** 0.0
49619 H 33.1617 58.2726 16.7717 H 0.0 **** 0.0
49620 H 32.1698 57.3633 15.5531 H 0.0 **** 0.0
49621 H 31.9167 59.9536 15.6846 H 0.0 **** 0.0
49622 H 32.4501 59.3609 14.0628 H 0.0 **** 0.0
49623 H 33.1212 63.9961 12.3809 H 0.0 **** 0.0
49624 H 32.8325 62.6601 9.64937 H 0.0 **** 0.0
49625 H 37.5183 66.3564 7.49792 H 0.0 **** 0.0
49626 H 35.8213 69.065 6.02642 H 0.0 **** 0.0
49627 H 33.5789 68.8495 5.16633 H 0.0 **** 0.0
49628 H 34.9692 67.0769 3.08406 H 0.0 **** 0.0
49629 H 35.4682 70.0338 3.60866 H 0.0 **** 0.0
49630 H 36.0303 69.2707 2.10683 H 0.0 **** 0.0
49631 H 37.7605 69.2978 3.92374 H 0.0 **** 0.0
49632 H 37.5731 67.8659 2.92537 H 0.0 **** 0.0
49633 H 37.6597 67.6648 5.64867 H 0.0 **** 0.0
49634 H 36.7155 66.4931 4.70168 H 0.0 **** 0.0
49635 H 47.9548 61.1381 22.9992 H 0.0 **** 0.0
49636 H 48.9961 59.991 21.1121 H 0.0 **** 0.0
49637 H 49.5917 61.5321 20.4622 H 0.0 **** 0.0
49638 H 47.8588 61.2313 20.4599 H 0.0 **** 0.0
49639 H 50.0088 60.4895 23.6399 H 0.0 **** 0.0
49640 H 49.8981 62.1811 24.1833 H 0.0 **** 0.0
49641 H 50.8839 61.7231 22.6777 H 0.0 **** 0.0
49642 H 40.8382 69.2268 13.5336 H 0.0 **** 0.0
49643 H 29.7415 65.0801 7.60116 H 0.0 **** 0.0
49644 H 27.817 64.9519 6.36616 H 0.0 **** 0.0
49645 H 26.5235 65.1467 3.93689 H 0.0 **** 0.0
49646 H 25.3729 65.5993 1.66825 H 0.0 **** 0.0
49647 H 25.2941 67.0402 -0.443458 H 0.0 **** 0.0
49648 H 28.6796 68.5588 -3.35042 H 0.0 **** 0.0
49649 H 26.5717 68.3397 -2.20872 H 0.0 **** 0.0
49650 H 34.475 68.8713 0.569895 H 0.0 **** 0.0
49651 H 34.4764 69.4 -1.48419 H 0.0 **** 0.0
49652 H 34.4864 67.7269 -2.07873 H 0.0 **** 0.0
49653 H 34.8922 69.1375 -4.00384 H 0.0 **** 0.0
49654 H 33.5754 70.2182 -3.46191 H 0.0 **** 0.0
49655 H 33.182 67.2971 -4.53291 H 0.0 **** 0.0
49656 H 32.8481 68.8317 -5.3458 H 0.0 **** 0.0
49657 C 12.9311 91.1988 70.4058 C 0.0 **** 0.0
49658 C 13.6559 90.0082 69.7896 C 0.0 **** 0.0
49659 C 14.9542 89.675 70.5447 C 0.0 **** 0.0
49660 C 15.7089 90.9578 71.0003 C 0.0 **** 0.0
49661 C 14.7252 91.9174 71.737 C 0.0 **** 0.0
49662 O 13.3679 91.4095 71.737 O 0.0 **** 0.0
49663 C 16.5479 91.6254 69.8877 C 0.0 **** 0.0
49664 C 17.1858 90.565 68.9428 C 0.0 **** 0.0
49665 C 17.2281 89.1583 69.5503 C 0.0 **** 0.0
49666 C 15.8012 88.6237 69.8733 C 0.0 **** 0.0
49667 O 18.4 90.8202 68.2864 O 0.0 **** 0.0
49668 C 19.3058 91.7463 68.8847 C 0.0 **** 0.0
49669 C 18.9662 92.1145 70.3683 C 0.0 **** 0.0
49670 C 17.5442 92.6686 70.436 C 0.0 **** 0.0
49671 C 19.9671 93.1996 70.8326 C 0.0 **** 0.0
49672 C 20.8006 93.9248 69.9036 C 0.0 **** 0.0
49673 C 20.1349 94.2109 68.5215 C 0.0 **** 0.0
49674 C 19.3511 92.9955 67.9377 C 0.0 **** 0.0
49675 C 21.1608 94.8211 67.4831 C 0.0 **** 0.0
49676 C 21.7063 96.1249 68.0563 C 0.0 **** 0.0
49677 C 22.398 95.8672 69.4309 C 0.0 **** 0.0
49678 C 21.4286 95.276 70.4145 C 0.0 **** 0.0
49679 C 22.0079 95.0899 71.8285 C 0.0 **** 0.0
49680 C 20.8128 94.7203 72.7208 C 0.0 **** 0.0
49681 C 20.0551 93.4988 72.2082 C 0.0 **** 0.0
49682 O 22.9677 97.0436 69.933 O 0.0 **** 0.0
49683 C 24.0027 97.3953 69.0301 C 0.0 **** 0.0
49684 C 23.3695 97.9148 67.7049 C 0.0 **** 0.0
49685 C 22.704 96.7359 67.0644 C 0.0 **** 0.0
49686 C 19.7996 92.7406 66.5004 C 0.0 **** 0.0
49687 C 19.6873 93.9409 65.5935 C 0.0 **** 0.0
49688 C 20.5176 95.1081 66.1208 C 0.0 **** 0.0
49689 C 19.9067 93.6603 64.1029 C 0.0 **** 0.0
49690 C 20.6742 92.6123 63.7475 C 0.0 **** 0.0
49691 C 21.1052 91.5062 64.7379 C 0.0 **** 0.0
49692 C 20.4521 91.6051 66.0947 C 0.0 **** 0.0
49693 C 21.0155 92.4202 62.2918 C 0.0 **** 0.0
49694 C 21.0361 93.7673 61.4962 C 0.0 **** 0.0
49695 C 19.7887 94.5481 61.8 C 0.0 **** 0.0
49696 C 19.263 94.5323 63.0426 C 0.0 **** 0.0
49697 C 17.8537 95.1507 63.2689 C 0.0 **** 0.0
49698 C 16.9884 94.9447 61.9933 C 0.0 **** 0.0
49699 C 17.6879 95.7146 60.8565 C 0.0 **** 0.0
49700 C 19.1726 95.393 60.7113 C 0.0 **** 0.0
49701 C 21.9667 97.0673 65.7815 C 0.0 **** 0.0
49702 C 21.4705 95.7542 65.1463 C 0.0 **** 0.0
49703 C 24.4113 98.5668 66.7127 C 0.0 **** 0.0
49704 C 23.6155 99.2257 65.5743 C 0.0 **** 0.0
49705 S 22.959 97.9397 64.4905 S 0.0 **** 0.0
49706 C 24.4273 100.314 64.7636 C 0.0 **** 0.0
49707 C 25.1725 101.261 65.715 C 0.0 **** 0.0
49708 C 26.1594 100.372 66.5193 C 0.0 **** 0.0
49709 C 25.2601 99.5425 67.4691 C 0.0 **** 0.0
49710 C 27.1302 101.21 67.3263 C 0.0 **** 0.0
49711 C 27.809 102.298 66.5056 C 0.0 **** 0.0
49712 C 26.7463 103.246 65.8959 C 0.0 **** 0.0
49713 C 25.8268 102.444 64.9711 C 0.0 **** 0.0
49714 C 27.3312 104.535 65.2578 C 0.0 **** 0.0
49715 C 28.5057 105.143 66.027 C 0.0 **** 0.0
49716 C 28.7476 104.549 67.4423 C 0.0 **** 0.0
49717 C 28.9413 103.022 67.2376 C 0.0 **** 0.0
49718 C 25.9981 98.774 68.6066 C 0.0 **** 0.0
49719 C 24.9407 98.4638 69.62 C 0.0 **** 0.0
49720 C 28.0141 100.245 68.0404 C 0.0 **** 0.0
49721 C 27.2432 99.5079 69.1705 C 0.0 **** 0.0
49722 C 29.3135 102.419 68.5567 C 0.0 **** 0.0
49723 C 29.3749 100.877 68.3751 C 0.0 **** 0.0
49724 C 30.0559 105.166 68.0078 C 0.0 **** 0.0
49725 C 30.7128 104.382 69.1817 C 0.0 **** 0.0
49726 C 30.7387 102.926 68.8381 C 0.0 **** 0.0
49727 O 29.6845 104.942 65.2833 O 0.0 **** 0.0
49728 C 29.7081 105.891 64.2311 C 0.0 **** 0.0
49729 C 28.5205 105.617 63.2619 C 0.0 **** 0.0
49730 C 27.5769 104.472 63.7193 C 0.0 **** 0.0
49731 C 28.9322 105.421 61.7779 C 0.0 **** 0.0
49732 C 30.0338 106.363 61.2525 C 0.0 **** 0.0
49733 C 31.2227 106.529 62.2357 C 0.0 **** 0.0
49734 C 31.0913 105.716 63.5526 C 0.0 **** 0.0
49735 C 32.3074 106.025 64.4803 C 0.0 **** 0.0
49736 C 32.6014 107.521 64.648 C 0.0 **** 0.0
49737 C 32.5942 108.232 63.3176 C 0.0 **** 0.0
49738 N 31.3633 107.976 62.5677 N 0.0 **** 0.0
49739 C 28.2619 98.4242 69.6155 C 0.0 **** 0.0
49740 C 29.7271 98.7845 69.6638 C 0.0 **** 0.0
49741 C 29.9274 100.268 69.6697 C 0.0 **** 0.0
49742 O 30.4377 98.0653 70.6608 O 0.0 **** 0.0
49743 C 29.8027 98.1049 71.9385 C 0.0 **** 0.0
49744 C 28.2976 97.9252 71.8809 C 0.0 **** 0.0
49745 O 27.782 97.5715 70.5921 O 0.0 **** 0.0
49746 C 27.5725 99.1378 72.4829 C 0.0 **** 0.0
49747 C 27.9688 99.3695 73.9319 C 0.0 **** 0.0
49748 C 29.5279 99.2911 74.0829 C 0.0 **** 0.0
49749 C 30.2786 99.2967 72.7642 C 0.0 **** 0.0
49750 C 31.5335 102.083 69.8663 C 0.0 **** 0.0
49751 C 31.3941 100.576 69.6433 C 0.0 **** 0.0
49752 C 32.1338 104.848 69.3139 C 0.0 **** 0.0
49753 C 33.0293 104.009 70.2183 C 0.0 **** 0.0
49754 C 32.9906 102.569 69.863 C 0.0 **** 0.0
49755 C 32.0934 106.284 69.82 C 0.0 **** 0.0
49756 C 31.4418 107.204 68.8385 C 0.0 **** 0.0
49757 C 30.0531 106.691 68.3324 C 0.0 **** 0.0
49758 O 34.3375 104.507 70.1308 O 0.0 **** 0.0
49759 C 34.3298 105.718 70.799 C 0.0 **** 0.0
49760 C 33.5511 106.723 69.9848 C 0.0 **** 0.0
49761 C 31.4511 108.69 69.1857 C 0.0 **** 0.0
49762 C 32.8777 109.124 69.7601 C 0.0 **** 0.0
49763 C 33.529 108.082 70.6596 C 0.0 **** 0.0
49764 C 32.8086 110.445 70.4582 C 0.0 **** 0.0
49765 C 31.6876 111.333 69.8901 C 0.0 **** 0.0
49766 C 30.2651 110.701 70.1228 C 0.0 **** 0.0
49767 C 30.3033 109.145 70.1099 C 0.0 **** 0.0
49768 C 34.9539 108.517 71.0932 C 0.0 **** 0.0
49769 C 36.1478 107.638 70.7326 C 0.0 **** 0.0
49770 C 35.788 106.178 71.0481 C 0.0 **** 0.0
49771 C 34.2908 110.896 70.4759 C 0.0 **** 0.0
49772 C 35.2213 109.995 71.3112 C 0.0 **** 0.0
49773 C 15.5185 95.4085 62.1908 C 0.0 **** 0.0
49774 C 15.2694 96.8733 62.5262 C 0.0 **** 0.0
49775 C 14.6243 95.0597 60.973 C 0.0 **** 0.0
49776 O 26.3575 104.66 63.019 O 0.0 **** 0.0
49777 C 36.9267 105.204 70.6753 C 0.0 **** 0.0
49778 C 38.3503 105.62 71.0995 C 0.0 **** 0.0
49779 C 38.6083 107.145 71.0368 C 0.0 **** 0.0
49780 C 37.4051 107.952 71.5599 C 0.0 **** 0.0
49781 C 37.6499 109.46 71.7827 C 0.0 **** 0.0
49782 C 39.1269 109.868 71.4941 C 0.0 **** 0.0
49783 C 40.0992 108.921 72.2599 C 0.0 **** 0.0
49784 C 39.9068 107.45 71.8723 C 0.0 **** 0.0
49785 C 41.5667 109.43 72.0503 C 0.0 **** 0.0
49786 C 41.7868 110.88 72.405 C 0.0 **** 0.0
49787 C 40.7153 111.785 71.7775 C 0.0 **** 0.0
49788 C 39.292 111.312 71.9784 C 0.0 **** 0.0
49789 C 38.3072 112.265 71.3027 C 0.0 **** 0.0
49790 C 36.8629 111.856 71.5062 C 0.0 **** 0.0
49791 C 36.66 110.402 71.0595 C 0.0 **** 0.0
49792 C 38.4948 113.766 71.7579 C 0.0 **** 0.0
49793 C 39.986 114.18 71.513 C 0.0 **** 0.0
49794 C 40.8941 113.239 72.2669 C 0.0 **** 0.0
49795 C 34.469 112.334 70.8447 C 0.0 **** 0.0
49796 C 35.9328 112.761 70.6806 C 0.0 **** 0.0
49797 C 37.5285 114.716 71.0364 C 0.0 **** 0.0
49798 C 36.0878 114.234 71.0903 C 0.0 **** 0.0
49799 C 35.1067 115.184 70.346 C 0.0 **** 0.0
49800 C 35.7757 116.507 69.8904 C 0.0 **** 0.0
49801 C 36.5607 117.146 71.0941 C 0.0 **** 0.0
49802 C 37.4801 116.12 71.6417 C 0.0 **** 0.0
49803 O 38.1604 116.44 72.5624 O 0.0 **** 0.0
49804 H 11.8424 91.0053 70.3802 H 0.0 **** 0.0
49805 H 13.0698 92.115 69.7938 H 0.0 **** 0.0
49806 H 13.0461 89.0679 69.9216 H 0.0 **** 0.0
49807 H 13.916 90.1641 68.7197 H 0.0 **** 0.0
49808 H 14.7064 89.207 71.5616 H 0.0 **** 0.0
49809 H 16.4759 90.6221 71.7538 H 0.0 **** 0.0
49810 H 14.7047 92.9051 71.2386 H 0.0 **** 0.0
49811 H 15.0253 92.0517 72.7864 H 0.0 **** 0.0
49812 H 15.7914 92.1894 69.2719 H 0.0 **** 0.0
49813 H 16.4501 90.3951 68.1171 H 0.0 **** 0.0
49814 H 17.8486 89.2134 70.4414 H 0.0 **** 0.0
49815 H 17.737 88.4996 68.8671 H 0.0 **** 0.0
49816 H 15.9021 87.7935 70.5832 H 0.0 **** 0.0
49817 H 15.3848 88.2598 68.9377 H 0.0 **** 0.0
49818 H 20.3323 91.3211 68.8686 H 0.0 **** 0.0
49819 H 19.0602 91.2085 71.0306 H 0.0 **** 0.0
49820 H 17.5226 93.5981 69.8839 H 0.0 **** 0.0
49821 H 17.3379 92.8853 71.5217 H 0.0 **** 0.0
49822 H 18.3002 93.3264 67.7591 H 0.0 **** 0.0
49823 H 22.73 94.2363 71.7911 H 0.0 **** 0.0
49824 H 22.4884 96.0203 72.1651 H 0.0 **** 0.0
49825 H 20.0718 95.5933 72.8157 H 0.0 **** 0.0
49826 H 21.2051 94.5634 73.7197 H 0.0 **** 0.0
49827 H 19.5455 92.8983 72.9276 H 0.0 **** 0.0
49828 H 18.6771 94.313 65.7066 H 0.0 **** 0.0
49829 H 22.2336 91.4573 64.8123 H 0.0 **** 0.0
49830 H 20.8126 90.5076 64.2599 H 0.0 **** 0.0
49831 H 20.679 90.8042 66.757 H 0.0 **** 0.0
49832 H 22.0442 92.0181 62.2693 H 0.0 **** 0.0
49833 H 20.2975 91.7168 61.9131 H 0.0 **** 0.0
49834 H 21.035 93.4188 60.5062 H 0.0 **** 0.0
49835 H 21.9386 94.3677 61.6954 H 0.0 **** 0.0
49836 H 17.3858 94.549 64.1132 H 0.0 **** 0.0
49837 H 17.9582 96.2079 63.6158 H 0.0 **** 0.0
49838 H 16.9443 93.8085 61.7477 H 0.0 **** 0.0
49839 H 17.5942 96.8346 60.9483 H 0.0 **** 0.0
49840 H 17.1782 95.479 59.908 H 0.0 **** 0.0
49841 H 19.6877 96.3888 60.7043 H 0.0 **** 0.0
49842 H 19.3862 94.9412 59.7384 H 0.0 **** 0.0
49843 H 22.3269 95.0679 64.819 H 0.0 **** 0.0
49844 H 23.6908 100.896 64.1372 H 0.0 **** 0.0
49845 H 25.0337 103.143 64.6032 H 0.0 **** 0.0
49846 H 25.3432 98.2396 70.6633 H 0.0 **** 0.0
49847 H 29.6954 106.855 64.7008 H 0.0 **** 0.0
49848 H 27.9393 106.543 63.2861 H 0.0 **** 0.0
49849 H 28.0646 103.495 63.4884 H 0.0 **** 0.0
49850 H 29.2953 104.33 61.6153 H 0.0 **** 0.0
49851 H 28.004 105.587 61.2023 H 0.0 **** 0.0
49852 H 29.5216 107.341 61.1384 H 0.0 **** 0.0
49853 H 30.4111 106.058 60.2002 H 0.0 **** 0.0
49854 H 32.1032 106.195 61.6892 H 0.0 **** 0.0
49855 H 31.1122 104.666 63.2458 H 0.0 **** 0.0
49856 H 32.1593 105.524 65.4694 H 0.0 **** 0.0
49857 H 33.2168 105.502 64.1009 H 0.0 **** 0.0
49858 H 33.5602 107.664 65.15 H 0.0 **** 0.0
49859 H 31.7653 107.925 65.2875 H 0.0 **** 0.0
49860 H 33.5182 107.982 62.7082 H 0.0 **** 0.0
49861 H 32.7337 109.338 63.5142 H 0.0 **** 0.0
49862 H 30.5078 108.283 63.0791 H 0.0 **** 0.0
49863 H 30.2128 97.1922 72.4966 H 0.0 **** 0.0
49864 H 28.0192 97.1004 72.5477 H 0.0 **** 0.0
49865 H 27.93 100.043 71.9273 H 0.0 **** 0.0
49866 H 26.4357 99.046 72.4489 H 0.0 **** 0.0
49867 H 27.5207 98.5762 74.549 H 0.0 **** 0.0
49868 H 27.6537 100.396 74.2511 H 0.0 **** 0.0
49869 H 29.8435 98.41 74.6671 H 0.0 **** 0.0
49870 H 29.8482 100.198 74.7101 H 0.0 **** 0.0
49871 H 31.3483 99.1206 72.9856 H 0.0 **** 0.0
49872 H 30.2238 100.293 72.2683 H 0.0 **** 0.0
49873 H 32.0022 100.003 70.385 H 0.0 **** 0.0
49874 H 33.5359 102.034 70.6731 H 0.0 **** 0.0
49875 H 29.8868 107.283 67.4562 H 0.0 **** 0.0
49876 H 31.2911 109.181 68.1668 H 0.0 **** 0.0
49877 H 33.531 109.238 68.8624 H 0.0 **** 0.0
49878 H 32.5821 110.298 71.5257 H 0.0 **** 0.0
49879 H 31.8079 111.449 68.7511 H 0.0 **** 0.0
49880 H 31.7137 112.366 70.3726 H 0.0 **** 0.0
49881 H 29.5549 111.082 69.3234 H 0.0 **** 0.0
49882 H 29.8608 111.076 71.1197 H 0.0 **** 0.0
49883 H 29.304 108.767 69.7925 H 0.0 **** 0.0
49884 H 30.5462 108.847 71.1294 H 0.0 **** 0.0
49885 H 15.0784 94.8183 63.0242 H 0.0 **** 0.0
49886 H 14.1735 96.9719 62.7952 H 0.0 **** 0.0
49887 H 15.5809 97.5989 61.75 H 0.0 **** 0.0
49888 H 15.8053 97.1235 63.4693 H 0.0 **** 0.0
49889 H 14.8381 93.9851 60.6368 H 0.0 **** 0.0
49890 H 14.8235 95.8431 60.1494 H 0.0 **** 0.0
49891 H 13.5653 95.2116 61.2029 H 0.0 **** 0.0
49892 H 26.1459 103.835 62.4787 H 0.0 **** 0.0
49893 H 36.6988 104.162 70.9507 H 0.0 **** 0.0
49894 H 39.1224 105.116 70.4456 H 0.0 **** 0.0
49895 H 40.8085 107.053 71.3639 H 0.0 **** 0.0
49896 H 42.3126 108.77 72.5948 H 0.0 **** 0.0
49897 H 42.8003 111.204 72.0579 H 0.0 **** 0.0
49898 H 40.1358 115.232 71.8627 H 0.0 **** 0.0
49899 H 41.9668 113.565 72.0875 H 0.0 **** 0.0
49900 H 34.1058 112.453 71.8629 H 0.0 **** 0.0
49901 H 34.7506 114.704 69.4205 H 0.0 **** 0.0
49902 H 34.2256 115.367 70.9697 H 0.0 **** 0.0
49903 H 35.0583 117.249 69.5057 H 0.0 **** 0.0
49904 H 36.516 116.326 69.0846 H 0.0 **** 0.0
49905 H 35.8044 117.466 71.8672 H 0.0 **** 0.0
49906 H 37.1112 118.028 70.6918 H 0.0 **** 0.0
49907 C 60.0706 50.0326 23.0875 C 0.0 **** 0.0
49908 C 58.7212 49.4451 22.6165 C 0.0 **** 0.0
49909 C 58.3094 48.235 23.3856 C 0.0 **** 0.0
49910 C 59.5006 47.233 23.4965 C 0.0 **** 0.0
49911 C 60.8213 47.9722 23.8721 C 0.0 **** 0.0
49912 O 60.5596 49.3354 24.2034 O 0.0 **** 0.0
49913 C 59.6911 46.305 22.2563 C 0.0 **** 0.0
49914 C 58.34 46.1022 21.4429 C 0.0 **** 0.0
49915 C 57.1463 46.1921 22.4071 C 0.0 **** 0.0
49916 C 57.0007 47.6463 22.8266 C 0.0 **** 0.0
49917 O 58.2154 44.8054 20.8438 O 0.0 **** 0.0
49918 C 59.4076 44.3254 20.2411 C 0.0 **** 0.0
49919 C 60.5066 44.1349 21.3099 C 0.0 **** 0.0
49920 C 60.2663 44.9367 22.6104 C 0.0 **** 0.0
49921 C 61.9498 44.1882 20.8059 C 0.0 **** 0.0
49922 C 62.254 44.8031 19.5338 C 0.0 **** 0.0
49923 C 61.1399 44.6898 18.503 C 0.0 **** 0.0
49924 C 59.7887 45.2237 19.0222 C 0.0 **** 0.0
49925 C 61.5351 45.4374 17.1742 C 0.0 **** 0.0
49926 C 62.8969 45.012 16.6139 C 0.0 **** 0.0
49927 C 63.9175 45.2881 17.7319 C 0.0 **** 0.0
49928 C 63.6084 44.3802 18.9513 C 0.0 **** 0.0
49929 C 64.7121 44.4802 20.0396 C 0.0 **** 0.0
49930 C 64.3664 43.4834 21.166 C 0.0 **** 0.0
49931 C 62.9585 43.6532 21.6614 C 0.0 **** 0.0
49932 O 65.2937 45.3797 17.3728 O 0.0 **** 0.0
49933 C 65.5061 44.6924 16.1373 C 0.0 **** 0.0
49934 C 64.7763 45.3349 14.942 C 0.0 **** 0.0
49935 C 63.3031 45.678 15.3074 C 0.0 **** 0.0
49936 C 58.777 45.2666 17.8729 C 0.0 **** 0.0
49937 C 59.2375 46.1393 16.7254 C 0.0 **** 0.0
49938 C 60.4417 45.3958 16.1052 C 0.0 **** 0.0
49939 C 58.0834 46.3386 15.6926 C 0.0 **** 0.0
49940 C 57.1399 45.4012 15.529 C 0.0 **** 0.0
49941 C 56.7819 44.3742 16.5733 C 0.0 **** 0.0
49942 C 57.6798 44.4409 17.7835 C 0.0 **** 0.0
49943 C 56.2367 45.4403 14.3404 C 0.0 **** 0.0
49944 C 56.9749 45.99 13.0974 C 0.0 **** 0.0
49945 C 57.7291 47.2385 13.4258 C 0.0 **** 0.0
49946 C 58.2554 47.4323 14.6857 C 0.0 **** 0.0
49947 C 59.02 48.6981 15.021 C 0.0 **** 0.0
49948 C 59.2954 49.7224 13.8645 C 0.0 **** 0.0
49949 C 59.2054 49.0069 12.4905 C 0.0 **** 0.0
49950 C 57.8627 48.267 12.3533 C 0.0 **** 0.0
49951 C 62.2312 45.3435 14.3049 C 0.0 **** 0.0
49952 C 60.9572 46.0419 14.7899 C 0.0 **** 0.0
49953 C 64.974 44.5089 13.6784 C 0.0 **** 0.0
49954 C 64.4069 45.3028 12.5221 C 0.0 **** 0.0
49955 S 62.6373 45.895 12.581 S 0.0 **** 0.0
49956 C 64.643 44.6085 11.1481 C 0.0 **** 0.0
49957 C 66.1503 44.4772 10.9901 C 0.0 **** 0.0
49958 C 66.8805 43.683 12.0889 C 0.0 **** 0.0
49959 C 66.4923 44.2725 13.434 C 0.0 **** 0.0
49960 C 68.385 43.864 11.8846 C 0.0 **** 0.0
49961 C 68.7441 43.3106 10.5211 C 0.0 **** 0.0
49962 C 68.1133 44.2469 9.4457 C 0.0 **** 0.0
49963 C 66.5618 44.1291 9.56118 C 0.0 **** 0.0
49964 C 68.6121 43.888 8.01588 C 0.0 **** 0.0
49965 C 70.1525 43.7287 7.83474 C 0.0 **** 0.0
49966 C 70.7636 42.8089 8.91638 C 0.0 **** 0.0
49967 C 70.3136 43.2477 10.3418 C 0.0 **** 0.0
49968 C 67.1309 43.5689 14.6183 C 0.0 **** 0.0
49969 C 66.9812 44.585 15.7857 C 0.0 **** 0.0
49970 C 69.2569 43.4154 13.0834 C 0.0 **** 0.0
49971 C 68.5542 43.0322 14.3836 C 0.0 **** 0.0
49972 C 71.0879 42.6694 11.5283 C 0.0 **** 0.0
49973 C 70.1843 42.2351 12.712 C 0.0 **** 0.0
49974 C 72.2909 42.7819 8.87708 C 0.0 **** 0.0
49975 C 72.9044 41.8969 9.96104 C 0.0 **** 0.0
49976 C 71.9603 41.4712 11.0845 C 0.0 **** 0.0
49977 O 70.3142 43.0947 6.59323 O 0.0 **** 0.0
49978 C 70.1269 44.0067 5.51177 C 0.0 **** 0.0
49979 C 69.1138 45.1971 5.79704 C 0.0 **** 0.0
49980 C 68.0874 44.8726 6.92111 C 0.0 **** 0.0
49981 C 68.4467 45.6883 4.49876 C 0.0 **** 0.0
49982 C 69.3654 45.5695 3.27778 C 0.0 **** 0.0
49983 C 69.5806 44.0663 2.95409 C 0.0 **** 0.0
49984 C 69.6722 43.1652 4.26084 C 0.0 **** 0.0
49985 C 70.5848 41.892 4.04359 C 0.0 **** 0.0
49986 C 70.4402 41.434 2.58771 C 0.0 **** 0.0
49987 C 70.8441 42.5337 1.56135 C 0.0 **** 0.0
49988 N 70.7494 43.9122 2.05705 N 0.0 **** 0.0
49989 C 69.4579 42.677 15.6003 C 0.0 **** 0.0
49990 C 70.3996 41.536 15.2352 C 0.0 **** 0.0
49991 C 71.1199 41.7753 13.8751 C 0.0 **** 0.0
49992 O 71.3247 41.3449 16.2711 O 0.0 **** 0.0
49993 C 70.6595 40.8663 17.4349 C 0.0 **** 0.0
49994 C 69.5429 41.8748 17.847 C 0.0 **** 0.0
49995 O 68.7164 42.2426 16.7297 O 0.0 **** 0.0
49996 C 69.9998 43.078 18.6432 C 0.0 **** 0.0
49997 C 71.5027 43.3148 18.4734 C 0.0 **** 0.0
49998 C 72.366 42.1065 18.9637 C 0.0 **** 0.0
49999 C 71.6871 40.7863 18.5763 C 0.0 **** 0.0
50000 C 72.7971 40.8714 12.2231 C 0.0 **** 0.0
50001 C 71.981 40.5678 13.4782 C 0.0 **** 0.0
50002 C 73.5181 40.6119 9.36088 C 0.0 **** 0.0
50003 C 74.3814 39.9287 10.4429 C 0.0 **** 0.0
50004 C 73.6205 39.6987 11.7667 C 0.0 **** 0.0
50005 C 74.5282 40.9458 8.2666 C 0.0 **** 0.0
50006 C 73.7167 41.558 7.12571 C 0.0 **** 0.0
50007 C 73.0377 42.8312 7.57978 C 0.0 **** 0.0
50008 O 74.7262 38.663 9.96802 O 0.0 **** 0.0
50009 C 75.7071 38.7813 8.91473 C 0.0 **** 0.0
50010 C 75.1696 39.6472 7.82793 C 0.0 **** 0.0
50011 C 74.4315 41.5689 5.75696 C 0.0 **** 0.0
50012 C 75.5429 40.4619 5.49775 C 0.0 **** 0.0
50013 C 76.1996 39.8772 6.72696 C 0.0 **** 0.0
50014 C 76.6026 40.8501 4.48821 C 0.0 **** 0.0
50015 C 75.9194 41.6894 3.32724 C 0.0 **** 0.0
50016 C 75.2914 43.0114 3.82904 C 0.0 **** 0.0
50017 C 74.8992 42.942 5.27786 C 0.0 **** 0.0
50018 C 76.8266 38.5525 6.27789 C 0.0 **** 0.0
50019 C 77.2755 37.6401 7.41977 C 0.0 **** 0.0
50020 C 76.0734 37.4013 8.34282 C 0.0 **** 0.0
50021 C 77.3126 39.5152 4.03969 C 0.0 **** 0.0
50022 C 77.944 38.7961 5.24703 C 0.0 **** 0.0
50023 C 60.6002 50.6192 13.9711 C 0.0 **** 0.0
50024 C 61.9056 49.8253 14.0278 C 0.0 **** 0.0
50025 C 60.7493 51.6395 12.8108 C 0.0 **** 0.0
50026 O 67.7071 46.0702 7.52046 O 0.0 **** 0.0
50027 C 76.3695 36.3529 9.44283 C 0.0 **** 0.0
50028 C 76.7568 34.9997 8.77374 C 0.0 **** 0.0
50029 C 77.9853 35.2099 7.8743 C 0.0 **** 0.0
50030 C 77.7459 36.354 6.83273 C 0.0 **** 0.0
50031 C 78.9216 36.5397 5.844 C 0.0 **** 0.0
50032 C 79.2824 35.2082 5.18378 C 0.0 **** 0.0
50033 C 79.6167 34.1124 6.24349 C 0.0 **** 0.0
50034 C 78.4393 33.9276 7.17807 C 0.0 **** 0.0
50035 C 79.846 32.7727 5.48231 C 0.0 **** 0.0
50036 C 81.0611 32.9547 4.5851 C 0.0 **** 0.0
50037 C 80.8848 34.0498 3.57549 C 0.0 **** 0.0
50038 C 80.4783 35.3814 4.23519 C 0.0 **** 0.0
50039 C 80.2226 36.4747 3.16849 C 0.0 **** 0.0
50040 C 79.6532 37.7556 3.74673 C 0.0 **** 0.0
50041 C 78.5199 37.4906 4.72393 C 0.0 **** 0.0
50042 C 81.4876 36.7284 2.32728 C 0.0 **** 0.0
50043 C 81.9358 35.3626 1.70354 C 0.0 **** 0.0
50044 C 82.1565 34.351 2.79655 C 0.0 **** 0.0
50045 C 78.4161 39.8573 3.01588 C 0.0 **** 0.0
50046 C 79.2379 38.6431 2.57159 C 0.0 **** 0.0
50047 C 81.2822 37.8046 1.2649 C 0.0 **** 0.0
50048 C 80.4864 39.0174 1.77032 C 0.0 **** 0.0
50049 C 80.2682 40.081 0.638496 C 0.0 **** 0.0
50050 C 81.2172 40.022 -0.541223 C 0.0 **** 0.0
50051 C 82.645 39.5195 -0.222793 C 0.0 **** 0.0
50052 C 82.5905 38.262 0.593493 C 0.0 **** 0.0
50053 O 83.6586 37.6904 0.79951 O 0.0 **** 0.0
50054 H 59.9192 51.0959 23.3337 H 0.0 **** 0.0
50055 H 60.7967 50.0201 22.2383 H 0.0 **** 0.0
50056 H 57.9506 50.2006 22.7142 H 0.0 **** 0.0
50057 H 58.6878 49.2032 21.4869 H 0.0 **** 0.0
50058 H 58.1204 48.5412 24.4402 H 0.0 **** 0.0
50059 H 59.2759 46.5659 24.3542 H 0.0 **** 0.0
50060 H 61.6028 47.9643 23.0664 H 0.0 **** 0.0
50061 H 61.3283 47.4615 24.7261 H 0.0 **** 0.0
50062 H 60.4089 46.7734 21.5509 H 0.0 **** 0.0
50063 H 58.3233 46.919 20.6127 H 0.0 **** 0.0
50064 H 57.2238 45.4745 23.2594 H 0.0 **** 0.0
50065 H 56.2221 45.9243 21.834 H 0.0 **** 0.0
50066 H 56.2687 47.6714 23.686 H 0.0 **** 0.0
50067 H 56.6056 48.17 21.9524 H 0.0 **** 0.0
50068 H 59.1758 43.2872 19.845 H 0.0 **** 0.0
50069 H 60.358 43.0552 21.6435 H 0.0 **** 0.0
50070 H 61.1997 44.9527 23.228 H 0.0 **** 0.0
50071 H 59.5721 44.428 23.2411 H 0.0 **** 0.0
50072 H 60.0589 46.2824 19.3212 H 0.0 **** 0.0
50073 H 65.6847 44.2208 19.6296 H 0.0 **** 0.0
50074 H 64.7979 45.5145 20.4388 H 0.0 **** 0.0
50075 H 65.1161 43.6326 21.9803 H 0.0 **** 0.0
50076 H 64.521 42.4526 20.8872 H 0.0 **** 0.0
50077 H 62.6654 43.2228 22.6069 H 0.0 **** 0.0
50078 H 59.5167 47.1554 17.1348 H 0.0 **** 0.0
50079 H 56.913 43.3704 16.1187 H 0.0 **** 0.0
50080 H 55.7346 44.5861 16.8983 H 0.0 **** 0.0
50081 H 57.4032 43.7422 18.5924 H 0.0 **** 0.0
50082 H 55.9462 44.4148 14.1111 H 0.0 **** 0.0
50083 H 55.4265 46.139 14.581 H 0.0 **** 0.0
50084 H 56.2056 46.1798 12.2967 H 0.0 **** 0.0
50085 H 57.7076 45.2162 12.7891 H 0.0 **** 0.0
50086 H 58.507 49.2201 15.8793 H 0.0 **** 0.0
50087 H 59.9919 48.3506 15.3474 H 0.0 **** 0.0
50088 H 58.497 50.5032 13.8775 H 0.0 **** 0.0
50089 H 60.0719 48.3288 12.2833 H 0.0 **** 0.0
50090 H 59.214 49.7705 11.6641 H 0.0 **** 0.0
50091 H 57.7219 47.7465 11.3966 H 0.0 **** 0.0
50092 H 57.0164 48.958 12.5438 H 0.0 **** 0.0
50093 H 60.2339 45.8602 13.9244 H 0.0 **** 0.0
50094 H 64.179 45.2077 10.3699 H 0.0 **** 0.0
50095 H 66.0452 44.708 8.77263 H 0.0 **** 0.0
50096 H 67.5614 44.3213 16.7171 H 0.0 **** 0.0
50097 H 71.0981 44.4312 5.27672 H 0.0 **** 0.0
50098 H 69.7131 46.0269 6.14584 H 0.0 **** 0.0
50099 H 67.2049 44.4216 6.46463 H 0.0 **** 0.0
50100 H 67.4706 45.1196 4.2952 H 0.0 **** 0.0
50101 H 68.1392 46.6905 4.63256 H 0.0 **** 0.0
50102 H 70.349 46.0792 3.45009 H 0.0 **** 0.0
50103 H 68.8347 46.0841 2.44603 H 0.0 **** 0.0
50104 H 68.6346 43.7404 2.431 H 0.0 **** 0.0
50105 H 68.6222 42.8385 4.52622 H 0.0 **** 0.0
50106 H 71.6531 42.0873 4.27969 H 0.0 **** 0.0
50107 H 70.2225 41.0831 4.72771 H 0.0 **** 0.0
50108 H 69.3385 41.2644 2.49061 H 0.0 **** 0.0
50109 H 70.9748 40.4614 2.39185 H 0.0 **** 0.0
50110 H 70.1684 42.4083 0.674145 H 0.0 **** 0.0
50111 H 71.8273 42.2725 1.13453 H 0.0 **** 0.0
50112 H 71.6347 44.129 2.57499 H 0.0 **** 0.0
50113 H 70.2896 39.8603 17.2739 H 0.0 **** 0.0
50114 H 68.8671 41.3063 18.4859 H 0.0 **** 0.0
50115 H 69.4229 44.0387 18.3575 H 0.0 **** 0.0
50116 H 69.877 42.9722 19.7242 H 0.0 **** 0.0
50117 H 71.8796 44.1929 19.077 H 0.0 **** 0.0
50118 H 71.7048 43.5282 17.349 H 0.0 **** 0.0
50119 H 72.4567 42.1781 20.1029 H 0.0 **** 0.0
50120 H 73.3716 42.1999 18.5167 H 0.0 **** 0.0
50121 H 71.2242 40.3387 19.4795 H 0.0 **** 0.0
50122 H 72.4656 40.0507 18.3309 H 0.0 **** 0.0
50123 H 72.7064 40.3043 14.2474 H 0.0 **** 0.0
50124 H 74.3331 39.4168 12.589 H 0.0 **** 0.0
50125 H 73.85 43.6223 7.69386 H 0.0 **** 0.0
50126 H 73.6345 41.3103 5.03507 H 0.0 **** 0.0
50127 H 74.9159 39.6385 5.03742 H 0.0 **** 0.0
50128 H 77.3628 41.5887 4.93729 H 0.0 **** 0.0
50129 H 75.1137 41.0571 2.87357 H 0.0 **** 0.0
50130 H 76.6499 41.9864 2.51925 H 0.0 **** 0.0
50131 H 74.432 43.3045 3.1755 H 0.0 **** 0.0
50132 H 75.9997 43.8159 3.71471 H 0.0 **** 0.0
50133 H 74.0929 43.7198 5.41739 H 0.0 **** 0.0
50134 H 75.8027 43.2342 5.87349 H 0.0 **** 0.0
50135 H 60.5039 51.1486 14.9097 H 0.0 **** 0.0
50136 H 62.7339 50.5486 14.2356 H 0.0 **** 0.0
50137 H 62.1294 49.3858 13.027 H 0.0 **** 0.0
50138 H 61.9513 49.0741 14.8107 H 0.0 **** 0.0
50139 H 61.169 51.1969 11.87 H 0.0 **** 0.0
50140 H 61.3678 52.4596 13.1136 H 0.0 **** 0.0
50141 H 59.7955 52.0253 12.5584 H 0.0 **** 0.0
50142 H 67.0818 46.5691 6.93401 H 0.0 **** 0.0
50143 H 75.3838 36.1526 9.8996 H 0.0 **** 0.0
50144 H 77.0077 34.3435 9.58269 H 0.0 **** 0.0
50145 H 78.6529 33.0916 7.91969 H 0.0 **** 0.0
50146 H 80.1807 31.9767 6.19169 H 0.0 **** 0.0
50147 H 81.2348 31.967 4.06788 H 0.0 **** 0.0
50148 H 82.8828 35.4206 1.07013 H 0.0 **** 0.0
50149 H 82.5846 33.4179 2.38858 H 0.0 **** 0.0
50150 H 77.9725 40.2525 2.09258 H 0.0 **** 0.0
50151 H 79.2549 39.8489 0.209463 H 0.0 **** 0.0
50152 H 80.2552 41.0901 1.10342 H 0.0 **** 0.0
50153 H 81.2852 41.0217 -1.01338 H 0.0 **** 0.0
50154 H 80.7583 39.3282 -1.31422 H 0.0 **** 0.0
50155 H 83.2189 40.2457 0.44776 H 0.0 **** 0.0
50156 H 83.2132 39.2768 -1.16641 H 0.0 **** 0.0
50157 C 54.4511 43.389 80.8893 C 0.0 **** 0.0
50158 C 55.8527 42.7901 80.6279 C 0.0 **** 0.0
50159 C 55.9681 41.3917 81.1975 C 0.0 **** 0.0
50160 C 55.5992 41.3821 82.6881 C 0.0 **** 0.0
50161 C 54.776 42.6189 83.1152 C 0.0 **** 0.0
50162 O 53.8188 42.9917 82.1221 O 0.0 **** 0.0
50163 C 56.8754 41.2323 83.5497 C 0.0 **** 0.0
50164 C 57.5 39.8078 83.2818 C 0.0 **** 0.0
50165 C 57.7542 39.5544 81.7665 C 0.0 **** 0.0
50166 C 57.3449 40.7398 80.8833 C 0.0 **** 0.0
50167 O 56.5823 38.809 83.7656 O 0.0 **** 0.0
50168 C 56.302 38.8807 85.1513 C 0.0 **** 0.0
50169 C 55.7753 40.3012 85.5631 C 0.0 **** 0.0
50170 C 56.7115 41.4264 85.0615 C 0.0 **** 0.0
50171 C 55.6238 40.4937 87.0549 C 0.0 **** 0.0
50172 C 56.3411 39.6754 87.9527 C 0.0 **** 0.0
50173 C 57.0607 38.3669 87.4529 C 0.0 **** 0.0
50174 C 57.5369 38.3945 86.0078 C 0.0 **** 0.0
50175 C 58.3308 38.0839 88.3068 C 0.0 **** 0.0
50176 C 58.087 38.3344 89.8011 C 0.0 **** 0.0
50177 C 57.6446 39.7936 90.0779 C 0.0 **** 0.0
50178 C 57.2436 40.5912 88.8708 C 0.0 **** 0.0
50179 C 56.5672 41.934 89.3062 C 0.0 **** 0.0
50180 C 55.083 41.9428 88.9951 C 0.0 **** 0.0
50181 C 54.8817 41.5791 87.5469 C 0.0 **** 0.0
50182 O 58.6246 40.5101 90.7797 O 0.0 **** 0.0
50183 C 58.7111 39.9596 92.072 C 0.0 **** 0.0
50184 C 59.1855 38.4991 92.0821 C 0.0 **** 0.0
50185 C 59.3572 38.0349 90.6027 C 0.0 **** 0.0
50186 C 58.0657 36.962 85.6678 C 0.0 **** 0.0
50187 C 59.2255 36.4361 86.5518 C 0.0 **** 0.0
50188 C 58.8138 36.6436 88.0533 C 0.0 **** 0.0
50189 C 59.6031 34.9428 86.2247 C 0.0 **** 0.0
50190 C 58.6731 34.1309 85.6175 C 0.0 **** 0.0
50191 C 57.2456 34.6362 85.345 C 0.0 **** 0.0
50192 C 57.2584 36.1023 84.997 C 0.0 **** 0.0
50193 C 59.0406 32.728 85.2521 C 0.0 **** 0.0
50194 C 59.8918 32.1113 86.298 C 0.0 **** 0.0
50195 C 61.1385 32.989 86.5828 C 0.0 **** 0.0
50196 C 60.9652 34.3652 86.4803 C 0.0 **** 0.0
50197 C 62.1456 35.2604 86.6108 C 0.0 **** 0.0
50198 C 63.5157 34.5683 86.6846 C 0.0 **** 0.0
50199 C 63.41 33.2529 87.441 C 0.0 **** 0.0
50200 C 62.5037 32.3262 86.7215 C 0.0 **** 0.0
50201 C 59.6579 36.5558 90.5353 C 0.0 **** 0.0
50202 C 59.9232 36.2088 89.0807 C 0.0 **** 0.0
50203 C 60.4796 38.313 92.8729 C 0.0 **** 0.0
50204 C 60.7492 36.7997 93.0133 C 0.0 **** 0.0
50205 S 61.2041 36.0766 91.3973 S 0.0 **** 0.0
50206 C 61.779 36.511 94.0978 C 0.0 **** 0.0
50207 C 61.2365 36.9055 95.514 C 0.0 **** 0.0
50208 C 60.5985 38.3193 95.5669 C 0.0 **** 0.0
50209 C 60.4894 39.0617 94.2349 C 0.0 **** 0.0
50210 C 61.3155 39.257 96.5902 C 0.0 **** 0.0
50211 C 61.3835 38.5854 97.9998 C 0.0 **** 0.0
50212 C 61.9336 37.157 97.9726 C 0.0 **** 0.0
50213 C 62.3569 36.7276 96.5479 C 0.0 **** 0.0
50214 C 63.0411 36.885 99.0188 C 0.0 **** 0.0
50215 C 62.6847 37.4398 100.378 C 0.0 **** 0.0
50216 C 62.1741 38.907 100.36 C 0.0 **** 0.0
50217 C 62.1174 39.4949 98.988 C 0.0 **** 0.0
50218 C 59.588 40.2836 94.3411 C 0.0 **** 0.0
50219 C 59.4798 40.9209 92.9851 C 0.0 **** 0.0
50220 C 60.5655 40.5537 96.7555 C 0.0 **** 0.0
50221 C 60.2317 41.2423 95.411 C 0.0 **** 0.0
50222 C 61.4601 40.9208 99.0132 C 0.0 **** 0.0
50223 C 61.3841 41.4674 97.614 C 0.0 **** 0.0
50224 C 62.9057 39.8127 101.346 C 0.0 **** 0.0
50225 C 62.1753 41.1737 101.353 C 0.0 **** 0.0
50226 C 62.1858 41.8223 99.9431 C 0.0 **** 0.0
50227 O 61.7257 36.6362 101.012 O 0.0 **** 0.0
50228 C 62.2167 35.3619 101.387 C 0.0 **** 0.0
50229 C 63.4875 34.8972 100.568 C 0.0 **** 0.0
50230 C 63.3786 35.377 99.0946 C 0.0 **** 0.0
50231 C 63.7731 33.3637 100.654 C 0.0 **** 0.0
50232 C 63.0286 32.7083 101.868 C 0.0 **** 0.0
50233 C 61.5059 32.8958 101.618 C 0.0 **** 0.0
50234 C 61.0408 34.3429 101.317 C 0.0 **** 0.0
50235 C 59.8208 34.8027 102.164 C 0.0 **** 0.0
50236 C 60.1514 34.5471 103.61 C 0.0 **** 0.0
50237 C 60.7072 33.1452 103.919 C 0.0 **** 0.0
50238 N 60.7059 32.3189 102.734 N 0.0 **** 0.0
50239 C 59.3481 42.5179 95.6661 C 0.0 **** 0.0
50240 C 59.5503 43.1859 97.0529 C 0.0 **** 0.0
50241 C 60.9951 42.957 97.456 C 0.0 **** 0.0
50242 O 59.3194 44.5968 96.9878 O 0.0 **** 0.0
50243 C 58.2547 44.9488 96.1718 C 0.0 **** 0.0
50244 C 58.4887 44.3968 94.7229 C 0.0 **** 0.0
50245 O 59.565 43.4442 94.6544 O 0.0 **** 0.0
50246 C 58.8464 45.5503 93.7765 C 0.0 **** 0.0
50247 C 57.7362 46.6298 93.7321 C 0.0 **** 0.0
50248 C 57.1402 46.9357 95.1353 C 0.0 **** 0.0
50249 C 57.9924 46.4826 96.3191 C 0.0 **** 0.0
50250 C 61.5077 43.2002 99.9625 C 0.0 **** 0.0
50251 C 61.5321 43.8611 98.5658 C 0.0 **** 0.0
50252 C 62.7683 42.1403 102.39 C 0.0 **** 0.0
50253 C 62.0083 43.4791 102.379 C 0.0 **** 0.0
50254 C 62.2115 44.0641 101.002 C 0.0 **** 0.0
50255 C 62.7226 41.4808 103.782 C 0.0 **** 0.0
50256 C 63.573 40.2167 103.779 C 0.0 **** 0.0
50257 C 62.9268 39.2437 102.772 C 0.0 **** 0.0
50258 O 62.5494 44.3544 103.305 O 0.0 **** 0.0
50259 C 62.3815 43.7989 104.609 C 0.0 **** 0.0
50260 C 63.2293 42.4859 104.793 C 0.0 **** 0.0
50261 C 63.6182 39.5521 105.155 C 0.0 **** 0.0
50262 C 63.2622 40.3914 106.424 C 0.0 **** 0.0
50263 C 62.8885 41.8612 106.177 C 0.0 **** 0.0
50264 C 64.2592 40.2588 107.635 C 0.0 **** 0.0
50265 C 64.6207 38.778 107.822 C 0.0 **** 0.0
50266 C 65.0997 38.0331 106.547 C 0.0 **** 0.0
50267 C 65.0315 38.9191 105.288 C 0.0 **** 0.0
50268 C 63.1415 42.8437 107.313 C 0.0 **** 0.0
50269 C 62.2583 44.0851 107.076 C 0.0 **** 0.0
50270 C 62.6713 44.7584 105.739 C 0.0 **** 0.0
50271 C 63.6446 40.8675 108.909 C 0.0 **** 0.0
50272 C 62.7952 42.1555 108.661 C 0.0 **** 0.0
50273 C 64.5807 35.4915 87.346 C 0.0 **** 0.0
50274 C 64.7319 35.4672 88.8902 C 0.0 **** 0.0
50275 C 65.9002 35.2452 86.6472 C 0.0 **** 0.0
50276 O 64.5443 35.1253 98.3427 O 0.0 **** 0.0
50277 C 61.9764 46.1099 105.508 C 0.0 **** 0.0
50278 C 61.9602 47.0012 106.754 C 0.0 **** 0.0
50279 C 61.4707 46.1927 107.921 C 0.0 **** 0.0
50280 C 62.4138 45.0505 108.23 C 0.0 **** 0.0
50281 C 62.3178 44.5049 109.651 C 0.0 **** 0.0
50282 C 60.9136 44.5685 110.255 C 0.0 **** 0.0
50283 C 60.3018 45.9951 110.092 C 0.0 **** 0.0
50284 C 61.078 46.9576 109.16 C 0.0 **** 0.0
50285 C 59.9402 46.666 111.415 C 0.0 **** 0.0
50286 C 59.1284 45.7614 112.333 C 0.0 **** 0.0
50287 C 59.6583 44.3597 112.512 C 0.0 **** 0.0
50288 C 61.0051 44.1779 111.761 C 0.0 **** 0.0
50289 C 61.5676 42.8099 112.002 C 0.0 **** 0.0
50290 C 62.9047 42.6417 111.284 C 0.0 **** 0.0
50291 C 63.005 43.1667 109.833 C 0.0 **** 0.0
50292 C 61.7343 42.6313 113.508 C 0.0 **** 0.0
50293 C 60.3187 42.5095 114.07 C 0.0 **** 0.0
50294 C 59.6234 43.8928 113.989 C 0.0 **** 0.0
50295 C 64.3021 40.7148 110.328 C 0.0 **** 0.0
50296 C 63.2961 41.1698 111.455 C 0.0 **** 0.0
50297 C 62.4666 41.3608 113.842 C 0.0 **** 0.0
50298 C 63.723 41.0107 112.929 C 0.0 **** 0.0
50299 C 64.2063 39.5799 113.296 C 0.0 **** 0.0
50300 C 63.812 39.0085 114.68 C 0.0 **** 0.0
50301 C 63.6099 40.0485 115.767 C 0.0 **** 0.0
50302 C 62.8717 41.2289 115.285 C 0.0 **** 0.0
50303 O 62.6308 42.1784 116.073 O 0.0 **** 0.0
50304 H 53.8107 43.1837 80.012 H 0.0 **** 0.0
50305 H 54.5514 44.524 80.88 H 0.0 **** 0.0
50306 H 56.0703 42.8009 79.5033 H 0.0 **** 0.0
50307 H 56.6376 43.4461 81.0831 H 0.0 **** 0.0
50308 H 55.2096 40.8207 80.6268 H 0.0 **** 0.0
50309 H 54.9672 40.4556 82.8175 H 0.0 **** 0.0
50310 H 55.3959 43.5303 83.3183 H 0.0 **** 0.0
50311 H 54.1589 42.3018 83.9655 H 0.0 **** 0.0
50312 H 57.6068 42.0138 83.2885 H 0.0 **** 0.0
50313 H 58.4865 39.6827 83.7428 H 0.0 **** 0.0
50314 H 57.1167 38.681 81.4555 H 0.0 **** 0.0
50315 H 58.7893 39.1893 81.5609 H 0.0 **** 0.0
50316 H 57.2847 40.4191 79.8594 H 0.0 **** 0.0
50317 H 58.1694 41.4312 80.9316 H 0.0 **** 0.0
50318 H 55.5364 38.1753 85.3826 H 0.0 **** 0.0
50319 H 54.7533 40.3989 85.1493 H 0.0 **** 0.0
50320 H 57.7043 41.3037 85.5494 H 0.0 **** 0.0
50321 H 56.2896 42.3905 85.2747 H 0.0 **** 0.0
50322 H 58.335 39.1619 85.9744 H 0.0 **** 0.0
50323 H 56.6341 42.1237 90.3854 H 0.0 **** 0.0
50324 H 57.0562 42.7685 88.7955 H 0.0 **** 0.0
50325 H 54.6846 42.958 89.1654 H 0.0 **** 0.0
50326 H 54.5195 41.2095 89.6128 H 0.0 **** 0.0
50327 H 54.3138 42.185 86.8686 H 0.0 **** 0.0
50328 H 60.0977 37.0687 86.3087 H 0.0 **** 0.0
50329 H 56.6335 34.4354 86.2526 H 0.0 **** 0.0
50330 H 56.8107 34.0927 84.5146 H 0.0 **** 0.0
50331 H 56.5084 36.4878 84.3958 H 0.0 **** 0.0
50332 H 58.1025 32.1591 85.1228 H 0.0 **** 0.0
50333 H 59.5428 32.7694 84.2993 H 0.0 **** 0.0
50334 H 60.2164 31.0773 86.0421 H 0.0 **** 0.0
50335 H 59.2538 32.0994 87.2401 H 0.0 **** 0.0
50336 H 62.1425 35.9253 85.727 H 0.0 **** 0.0
50337 H 61.9755 35.8755 87.4944 H 0.0 **** 0.0
50338 H 63.8156 34.3774 85.6017 H 0.0 **** 0.0
50339 H 63.0383 33.3776 88.4807 H 0.0 **** 0.0
50340 H 64.4068 32.7557 87.4498 H 0.0 **** 0.0
50341 H 62.3224 31.3645 87.2011 H 0.0 **** 0.0
50342 H 62.8427 32.1849 85.6744 H 0.0 **** 0.0
50343 H 59.9296 35.0935 89.1041 H 0.0 **** 0.0
50344 H 62.098 35.4161 94.112 H 0.0 **** 0.0
50345 H 62.8415 35.7098 96.5325 H 0.0 **** 0.0
50346 H 60.5047 41.0785 92.5797 H 0.0 **** 0.0
50347 H 62.528 35.4323 102.449 H 0.0 **** 0.0
50348 H 64.3881 35.4184 101.005 H 0.0 **** 0.0
50349 H 62.5828 34.7947 98.6697 H 0.0 **** 0.0
50350 H 63.4101 32.7952 99.7378 H 0.0 **** 0.0
50351 H 64.8395 33.1553 100.657 H 0.0 **** 0.0
50352 H 63.3651 33.1976 102.822 H 0.0 **** 0.0
50353 H 63.283 31.6067 101.884 H 0.0 **** 0.0
50354 H 61.2503 32.2896 100.73 H 0.0 **** 0.0
50355 H 60.7167 34.3538 100.267 H 0.0 **** 0.0
50356 H 59.5853 35.8774 101.978 H 0.0 **** 0.0
50357 H 58.9314 34.1592 101.905 H 0.0 **** 0.0
50358 H 59.2087 34.6545 104.238 H 0.0 **** 0.0
50359 H 60.8937 35.3463 103.961 H 0.0 **** 0.0
50360 H 60.0935 32.6276 104.664 H 0.0 **** 0.0
50361 H 61.7242 33.2428 104.326 H 0.0 **** 0.0
50362 H 61.0845 31.359 102.945 H 0.0 **** 0.0
50363 H 57.3217 44.4655 96.6078 H 0.0 **** 0.0
50364 H 57.5451 43.8942 94.3656 H 0.0 **** 0.0
50365 H 59.7715 46.0072 94.1292 H 0.0 **** 0.0
50366 H 59.0886 45.0854 92.8217 H 0.0 **** 0.0
50367 H 56.8805 46.2401 93.1202 H 0.0 **** 0.0
50368 H 58.126 47.5681 93.3154 H 0.0 **** 0.0
50369 H 56.1418 46.4115 95.233 H 0.0 **** 0.0
50370 H 56.972 47.9941 95.283 H 0.0 **** 0.0
50371 H 57.5109 46.6461 97.3051 H 0.0 **** 0.0
50372 H 58.9382 47.064 96.3663 H 0.0 **** 0.0
50373 H 62.553 44.1792 98.3576 H 0.0 **** 0.0
50374 H 61.7444 45.0656 101.005 H 0.0 **** 0.0
50375 H 63.4727 38.2378 102.838 H 0.0 **** 0.0
50376 H 62.9049 38.6894 105.197 H 0.0 **** 0.0
50377 H 62.3379 39.9435 106.784 H 0.0 **** 0.0
50378 H 65.1895 40.8108 107.26 H 0.0 **** 0.0
50379 H 63.6847 38.2799 108.247 H 0.0 **** 0.0
50380 H 65.3209 38.6532 108.677 H 0.0 **** 0.0
50381 H 64.3887 37.1886 106.446 H 0.0 **** 0.0
50382 H 66.1099 37.5954 106.763 H 0.0 **** 0.0
50383 H 65.1963 38.2137 104.436 H 0.0 **** 0.0
50384 H 65.8295 39.6688 105.317 H 0.0 **** 0.0
50385 H 64.3533 36.5283 87.0164 H 0.0 **** 0.0
50386 H 65.3067 36.3792 89.1817 H 0.0 **** 0.0
50387 H 65.2432 34.5725 89.2267 H 0.0 **** 0.0
50388 H 63.7443 35.531 89.3899 H 0.0 **** 0.0
50389 H 65.8249 35.5008 85.5761 H 0.0 **** 0.0
50390 H 66.1753 34.1903 86.7109 H 0.0 **** 0.0
50391 H 66.7182 35.8769 87.1293 H 0.0 **** 0.0
50392 H 64.4673 34.2362 97.9154 H 0.0 **** 0.0
50393 H 62.5293 46.6656 104.682 H 0.0 **** 0.0
50394 H 61.3549 47.9061 106.497 H 0.0 **** 0.0
50395 H 60.456 47.891 108.94 H 0.0 **** 0.0
50396 H 59.3173 47.6005 111.267 H 0.0 **** 0.0
50397 H 58.9261 46.252 113.275 H 0.0 **** 0.0
50398 H 60.2892 42.0287 115.129 H 0.0 **** 0.0
50399 H 58.5188 43.8643 114.279 H 0.0 **** 0.0
50400 H 64.496 39.6666 110.463 H 0.0 **** 0.0
50401 H 63.8792 38.8397 112.559 H 0.0 **** 0.0
50402 H 65.3057 39.5944 113.216 H 0.0 **** 0.0
50403 H 64.5953 38.3777 115.058 H 0.0 **** 0.0
50404 H 62.8707 38.423 114.523 H 0.0 **** 0.0
50405 H 64.6266 40.3177 116.149 H 0.0 **** 0.0
50406 H 63.0259 39.5806 116.609 H 0.0 **** 0.0
50407 C 22.5694 74.4582 96.7133 C 0.0 **** 0.0
50408 C 22.3381 75.1157 98.0746 C 0.0 **** 0.0
50409 C 21.2418 76.2061 98.0814 C 0.0 **** 0.0
50410 C 21.5376 77.243 96.9244 C 0.0 **** 0.0
50411 C 22.2428 76.5234 95.7229 C 0.0 **** 0.0
50412 O 21.9039 75.1441 95.6515 O 0.0 **** 0.0
50413 C 22.3259 78.4793 97.4881 C 0.0 **** 0.0
50414 C 21.3621 79.201 98.4733 C 0.0 **** 0.0
50415 C 20.6466 78.237 99.4542 C 0.0 **** 0.0
50416 C 21.2041 76.8139 99.529 C 0.0 **** 0.0
50417 O 20.3844 79.995 97.8368 O 0.0 **** 0.0
50418 C 20.942 80.9932 96.9698 C 0.0 **** 0.0
50419 C 21.7988 80.3376 95.8702 C 0.0 **** 0.0
50420 C 22.8916 79.4503 96.451 C 0.0 **** 0.0
50421 C 22.4008 81.4362 95.0044 C 0.0 **** 0.0
50422 C 22.906 82.6604 95.6148 C 0.0 **** 0.0
50423 C 22.0598 83.2263 96.7928 C 0.0 **** 0.0
50424 C 21.6461 82.093 97.752 C 0.0 **** 0.0
50425 C 22.8859 84.2547 97.5303 C 0.0 **** 0.0
50426 C 23.2732 85.3427 96.5263 C 0.0 **** 0.0
50427 C 24.1399 84.7514 95.4105 C 0.0 **** 0.0
50428 C 23.2188 83.7759 94.6194 C 0.0 **** 0.0
50429 C 23.9057 83.3016 93.3183 C 0.0 **** 0.0
50430 C 23.1033 82.1582 92.6743 C 0.0 **** 0.0
50431 C 22.5006 81.2194 93.6346 C 0.0 **** 0.0
50432 O 24.7863 85.7175 94.5513 O 0.0 **** 0.0
50433 C 24.1364 86.9599 94.6627 C 0.0 **** 0.0
50434 C 24.4699 87.5541 96.0473 C 0.0 **** 0.0
50435 C 24.017 86.5426 97.1712 C 0.0 **** 0.0
50436 C 20.8625 82.748 98.8775 C 0.0 **** 0.0
50437 C 21.6454 83.796 99.6832 C 0.0 **** 0.0
50438 C 22.0226 84.9046 98.6439 C 0.0 **** 0.0
50439 C 20.8344 84.3696 100.844 C 0.0 **** 0.0
50440 C 19.4945 84.4192 100.739 C 0.0 **** 0.0
50441 C 18.7216 83.7814 99.6198 C 0.0 **** 0.0
50442 C 19.499 82.7134 98.9473 C 0.0 **** 0.0
50443 C 18.6782 85.2853 101.653 C 0.0 **** 0.0
50444 C 19.5167 86.3708 102.279 C 0.0 **** 0.0
50445 C 20.8977 85.9301 102.672 C 0.0 **** 0.0
50446 C 21.5194 84.9486 102.003 C 0.0 **** 0.0
50447 C 22.9409 84.5231 102.367 C 0.0 **** 0.0
50448 C 23.4444 85.0177 103.744 C 0.0 **** 0.0
50449 C 23.0285 86.4849 103.913 C 0.0 **** 0.0
50450 C 21.5061 86.5942 103.862 C 0.0 **** 0.0
50451 C 23.1834 87.2284 98.2538 C 0.0 **** 0.0
50452 C 22.7203 86.1589 99.2818 C 0.0 **** 0.0
50453 C 23.9913 89.0177 96.219 C 0.0 **** 0.0
50454 C 24.5482 89.5739 97.5175 C 0.0 **** 0.0
50455 S 24.1007 88.6441 99.0348 S 0.0 **** 0.0
50456 C 24.2629 91.0268 97.6859 C 0.0 **** 0.0
50457 C 24.7422 91.805 96.448 C 0.0 **** 0.0
50458 C 24.0899 91.3118 95.1899 C 0.0 **** 0.0
50459 C 24.3332 89.8153 94.996 C 0.0 **** 0.0
50460 C 24.7309 91.9638 94.038 C 0.0 **** 0.0
50461 C 24.7384 93.4901 94.0365 C 0.0 **** 0.0
50462 C 25.293 93.9918 95.3972 C 0.0 **** 0.0
50463 C 24.5543 93.3211 96.566 C 0.0 **** 0.0
50464 C 25.2883 95.5606 95.4758 C 0.0 **** 0.0
50465 C 25.9424 96.2444 94.2786 C 0.0 **** 0.0
50466 C 25.7399 95.562 92.8848 C 0.0 **** 0.0
50467 C 25.6931 94.0132 92.9625 C 0.0 **** 0.0
50468 C 23.6172 89.1877 93.7834 C 0.0 **** 0.0
50469 C 24.387 87.9002 93.5068 C 0.0 **** 0.0
50470 C 24.5405 91.293 92.6544 C 0.0 **** 0.0
50471 C 23.4435 90.1709 92.6022 C 0.0 **** 0.0
50472 C 25.6778 93.2207 91.5993 C 0.0 **** 0.0
50473 C 24.4924 92.2636 91.5089 C 0.0 **** 0.0
50474 C 26.8432 95.8958 91.83 C 0.0 **** 0.0
50475 C 26.5313 95.3661 90.4162 C 0.0 **** 0.0
50476 C 25.5598 94.2051 90.3976 C 0.0 **** 0.0
50477 O 25.5346 97.5932 94.2888 O 0.0 **** 0.0
50478 C 26.2956 98.3091 95.2686 C 0.0 **** 0.0
50479 C 26.83 97.4054 96.4606 C 0.0 **** 0.0
50480 C 25.8937 96.1795 96.7749 C 0.0 **** 0.0
50481 C 27.2365 98.2308 97.7496 C 0.0 **** 0.0
50482 C 27.704 99.6021 97.3307 C 0.0 **** 0.0
50483 C 26.475 100.394 96.7647 C 0.0 **** 0.0
50484 C 25.4644 99.4569 95.9417 C 0.0 **** 0.0
50485 C 24.6213 100.307 94.9694 C 0.0 **** 0.0
50486 C 24.4198 101.746 95.487 C 0.0 **** 0.0
50487 C 25.7726 102.493 95.6852 C 0.0 **** 0.0
50488 N 26.8858 101.53 95.9397 N 0.0 **** 0.0
50489 C 23.4975 89.4645 91.2588 C 0.0 **** 0.0
50490 C 23.3698 90.5012 90.1332 C 0.0 **** 0.0
50491 C 24.5123 91.4887 90.1194 C 0.0 **** 0.0
50492 O 23.3326 89.8538 88.8775 O 0.0 **** 0.0
50493 C 22.1658 89.046 88.8436 C 0.0 **** 0.0
50494 C 22.3141 87.9629 89.9116 C 0.0 **** 0.0
50495 O 22.4337 88.5227 91.2214 O 0.0 **** 0.0
50496 C 23.4622 86.9649 89.5698 C 0.0 **** 0.0
50497 C 23.7466 86.8079 88.0516 C 0.0 **** 0.0
50498 C 22.4838 87.0209 87.2357 C 0.0 **** 0.0
50499 C 21.9589 88.3932 87.4604 C 0.0 **** 0.0
50500 C 25.299 93.585 88.9971 C 0.0 **** 0.0
50501 C 24.2308 92.5172 89.0347 C 0.0 **** 0.0
50502 C 25.7855 96.3968 89.6517 C 0.0 **** 0.0
50503 C 25.3795 95.99 88.2308 C 0.0 **** 0.0
50504 C 24.669 94.636 88.099 C 0.0 **** 0.0
50505 C 26.5786 97.7413 89.5085 C 0.0 **** 0.0
50506 C 26.6969 98.28 90.9499 C 0.0 **** 0.0
50507 C 27.5066 97.2943 91.8299 C 0.0 **** 0.0
50508 O 24.5532 96.967 87.6487 O 0.0 **** 0.0
50509 C 25.4434 98.0099 87.3582 C 0.0 **** 0.0
50510 C 25.7883 98.6973 88.6568 C 0.0 **** 0.0
50511 C 27.0598 99.7762 91.0834 C 0.0 **** 0.0
50512 C 26.6639 100.67 89.8519 C 0.0 **** 0.0
50513 C 26.6692 99.9612 88.4899 C 0.0 **** 0.0
50514 C 27.6075 101.965 89.7028 C 0.0 **** 0.0
50515 C 27.7823 102.594 91.104 C 0.0 **** 0.0
50516 C 28.5974 101.621 92.0351 C 0.0 **** 0.0
50517 C 28.4615 100.115 91.6724 C 0.0 **** 0.0
50518 C 26.0375 100.93 87.4796 C 0.0 **** 0.0
50519 C 25.7221 100.176 86.1888 C 0.0 **** 0.0
50520 C 24.7181 99.0352 86.5114 C 0.0 **** 0.0
50521 C 27.0721 102.942 88.5952 C 0.0 **** 0.0
50522 C 26.944 102.14 87.2813 C 0.0 **** 0.0
50523 C 25.008 84.7958 103.971 C 0.0 **** 0.0
50524 C 25.906 85.902 103.375 C 0.0 **** 0.0
50525 C 25.2707 84.5632 105.504 C 0.0 **** 0.0
50526 O 26.6621 95.2325 97.496 O 0.0 **** 0.0
50527 C 24.1509 98.4013 85.2151 C 0.0 **** 0.0
50528 C 23.5543 99.3723 84.2179 C 0.0 **** 0.0
50529 C 24.6206 100.417 83.8642 C 0.0 **** 0.0
50530 C 25.1417 101.098 85.1387 C 0.0 **** 0.0
50531 C 26.1563 102.207 84.8432 C 0.0 **** 0.0
50532 C 25.6318 103.176 83.8171 C 0.0 **** 0.0
50533 C 24.9977 102.518 82.6061 C 0.0 **** 0.0
50534 C 23.9515 101.487 82.983 C 0.0 **** 0.0
50535 C 24.3404 103.563 81.6559 C 0.0 **** 0.0
50536 C 25.0803 104.943 81.6629 C 0.0 **** 0.0
50537 C 26.593 104.778 82.0651 C 0.0 **** 0.0
50538 C 26.7727 104.079 83.4597 C 0.0 **** 0.0
50539 C 27.0665 104.967 84.639 C 0.0 **** 0.0
50540 C 27.4309 104.122 85.8629 C 0.0 **** 0.0
50541 C 26.4225 103.025 86.128 C 0.0 **** 0.0
50542 C 28.1768 105.945 84.2901 C 0.0 **** 0.0
50543 C 27.5961 106.832 83.1809 C 0.0 **** 0.0
50544 C 27.5531 105.975 81.9226 C 0.0 **** 0.0
50545 C 27.9172 104.199 88.3508 C 0.0 **** 0.0
50546 C 27.5876 105.03 87.091 C 0.0 **** 0.0
50547 C 28.6786 106.816 85.4403 C 0.0 **** 0.0
50548 C 28.7475 106.054 86.7901 C 0.0 **** 0.0
50549 C 29.0216 107.031 87.9553 C 0.0 **** 0.0
50550 C 29.9612 108.209 87.6276 C 0.0 **** 0.0
50551 C 30.8125 108.01 86.339 C 0.0 **** 0.0
50552 C 29.9772 107.484 85.1857 C 0.0 **** 0.0
50553 O 30.5556 107.383 84.1148 O 0.0 **** 0.0
50554 H 22.1712 73.431 96.7403 H 0.0 **** 0.0
50555 H 23.6554 74.387 96.5478 H 0.0 **** 0.0
50556 H 22.0151 74.3437 98.7977 H 0.0 **** 0.0
50557 H 23.2997 75.5684 98.3584 H 0.0 **** 0.0
50558 H 20.2194 75.7442 97.8247 H 0.0 **** 0.0
50559 H 20.5438 77.5475 96.4999 H 0.0 **** 0.0
50560 H 23.3881 76.6731 95.6975 H 0.0 **** 0.0
50561 H 21.8171 76.9573 94.8113 H 0.0 **** 0.0
50562 H 23.1978 78.0788 98.0169 H 0.0 **** 0.0
50563 H 21.9998 79.875 99.1306 H 0.0 **** 0.0
50564 H 19.6062 78.17 99.2509 H 0.0 **** 0.0
50565 H 20.7601 78.7033 100.475 H 0.0 **** 0.0
50566 H 20.5396 76.1515 100.134 H 0.0 **** 0.0
50567 H 22.2144 76.832 99.9611 H 0.0 **** 0.0
50568 H 20.1488 81.5829 96.4472 H 0.0 **** 0.0
50569 H 21.0932 79.7235 95.2652 H 0.0 **** 0.0
50570 H 23.6715 80.1311 96.9373 H 0.0 **** 0.0
50571 H 23.3567 78.8663 95.6618 H 0.0 **** 0.0
50572 H 22.571 81.7183 98.1698 H 0.0 **** 0.0
50573 H 23.9951 84.0914 92.5801 H 0.0 **** 0.0
50574 H 24.971 83.0075 93.5089 H 0.0 **** 0.0
50575 H 23.7967 81.5875 92.0585 H 0.0 **** 0.0
50576 H 22.2794 82.5263 92.0177 H 0.0 **** 0.0
50577 H 22.1836 80.2327 93.2024 H 0.0 **** 0.0
50578 H 22.5788 83.3005 100.029 H 0.0 **** 0.0
50579 H 18.4509 84.537 98.8723 H 0.0 **** 0.0
50580 H 17.7709 83.2581 100.026 H 0.0 **** 0.0
50581 H 18.9238 81.9577 98.4222 H 0.0 **** 0.0
50582 H 17.8261 85.7434 101.105 H 0.0 **** 0.0
50583 H 18.3038 84.6779 102.476 H 0.0 **** 0.0
50584 H 18.9283 86.7225 103.135 H 0.0 **** 0.0
50585 H 19.6883 87.2056 101.591 H 0.0 **** 0.0
50586 H 22.9155 83.4117 102.417 H 0.0 **** 0.0
50587 H 23.6057 84.8417 101.605 H 0.0 **** 0.0
50588 H 22.9065 84.4745 104.543 H 0.0 **** 0.0
50589 H 23.4892 87.1366 103.201 H 0.0 **** 0.0
50590 H 23.3779 86.8447 104.913 H 0.0 **** 0.0
50591 H 21.3015 87.6978 103.732 H 0.0 **** 0.0
50592 H 21.0421 86.2092 104.759 H 0.0 **** 0.0
50593 H 22.0061 86.66 100.002 H 0.0 **** 0.0
50594 H 24.8517 91.3898 98.4904 H 0.0 **** 0.0
50595 H 24.8042 93.6803 97.5662 H 0.0 **** 0.0
50596 H 24.0899 87.4264 92.5385 H 0.0 **** 0.0
50597 H 27.1499 98.797 94.8225 H 0.0 **** 0.0
50598 H 27.8166 96.9787 96.0814 H 0.0 **** 0.0
50599 H 25.0516 96.5972 97.3756 H 0.0 **** 0.0
50600 H 26.311 98.3049 98.368 H 0.0 **** 0.0
50601 H 28.063 97.7812 98.3252 H 0.0 **** 0.0
50602 H 28.3806 99.4349 96.4833 H 0.0 **** 0.0
50603 H 28.2237 100.113 98.1368 H 0.0 **** 0.0
50604 H 25.9599 100.743 97.6444 H 0.0 **** 0.0
50605 H 24.7974 98.9379 96.6196 H 0.0 **** 0.0
50606 H 25.1158 100.396 93.9537 H 0.0 **** 0.0
50607 H 23.6473 99.7705 94.7836 H 0.0 **** 0.0
50608 H 23.8836 101.661 96.4392 H 0.0 **** 0.0
50609 H 23.7682 102.276 94.7247 H 0.0 **** 0.0
50610 H 25.7074 103.154 96.5845 H 0.0 **** 0.0
50611 H 25.9664 103.115 94.7723 H 0.0 **** 0.0
50612 H 27.2943 101.131 95.0158 H 0.0 **** 0.0
50613 H 21.2754 89.6347 89.0957 H 0.0 **** 0.0
50614 H 21.339 87.4187 89.8773 H 0.0 **** 0.0
50615 H 24.3678 87.263 90.0665 H 0.0 **** 0.0
50616 H 23.2793 85.9735 90.0411 H 0.0 **** 0.0
50617 H 24.1107 85.7985 87.7556 H 0.0 **** 0.0
50618 H 24.5344 87.5199 87.7223 H 0.0 **** 0.0
50619 H 21.6933 86.2894 87.5746 H 0.0 **** 0.0
50620 H 22.7325 86.9067 86.1361 H 0.0 **** 0.0
50621 H 20.8583 88.3608 87.2683 H 0.0 **** 0.0
50622 H 22.4153 89.1133 86.7035 H 0.0 **** 0.0
50623 H 24.2532 92.0044 88.034 H 0.0 **** 0.0
50624 H 24.7547 94.3558 87.0265 H 0.0 **** 0.0
50625 H 27.622 97.6545 92.8763 H 0.0 **** 0.0
50626 H 26.3409 100.088 91.8681 H 0.0 **** 0.0
50627 H 25.5931 101.032 90.0394 H 0.0 **** 0.0
50628 H 28.6055 101.632 89.4167 H 0.0 **** 0.0
50629 H 26.8304 102.865 91.5496 H 0.0 **** 0.0
50630 H 28.3323 103.555 91.077 H 0.0 **** 0.0
50631 H 28.2388 101.742 93.0719 H 0.0 **** 0.0
50632 H 29.6472 101.848 91.9555 H 0.0 **** 0.0
50633 H 28.6658 99.542 92.5976 H 0.0 **** 0.0
50634 H 29.1857 99.862 90.889 H 0.0 **** 0.0
50635 H 25.2788 83.8668 103.459 H 0.0 **** 0.0
50636 H 26.964 85.5233 103.537 H 0.0 **** 0.0
50637 H 25.8089 86.8888 103.888 H 0.0 **** 0.0
50638 H 25.7262 86.0742 102.273 H 0.0 **** 0.0
50639 H 24.8665 83.6272 105.898 H 0.0 **** 0.0
50640 H 24.9583 85.4198 106.076 H 0.0 **** 0.0
50641 H 26.3913 84.5673 105.704 H 0.0 **** 0.0
50642 H 26.5061 95.3267 98.4476 H 0.0 **** 0.0
50643 H 23.4164 97.6084 85.5235 H 0.0 **** 0.0
50644 H 23.2947 98.7371 83.3028 H 0.0 **** 0.0
50645 H 23.546 101.054 82.0456 H 0.0 **** 0.0
50646 H 24.3684 103.144 80.6463 H 0.0 **** 0.0
50647 H 24.5466 105.645 82.3261 H 0.0 **** 0.0
50648 H 28.2729 107.688 83.0108 H 0.0 **** 0.0
50649 H 27.2316 106.507 81.0406 H 0.0 **** 0.0
50650 H 27.7499 104.812 89.3044 H 0.0 **** 0.0
50651 H 28.0575 107.349 88.413 H 0.0 **** 0.0
50652 H 29.5831 106.468 88.7591 H 0.0 **** 0.0
50653 H 30.6533 108.4 88.4627 H 0.0 **** 0.0
50654 H 29.3693 109.14 87.436 H 0.0 **** 0.0
50655 H 31.7025 107.329 86.484 H 0.0 **** 0.0
50656 H 31.2269 108.98 86.1165 H 0.0 **** 0.0
50657 C 37.1375 -0.182093 106.542 C 0.0 **** 0.0
50658 C 36.7838 -0.337462 105.053 C 0.0 **** 0.0
50659 C 38.0734 -0.414519 104.209 C 0.0 **** 0.0
50660 C 39.031 0.727153 104.573 C 0.0 **** 0.0
50661 C 39.1369 0.900361 106.109 C 0.0 **** 0.0
50662 O 38.543 -0.20873 106.744 O 0.0 **** 0.0
50663 C 38.6508 2.07623 103.908 C 0.0 **** 0.0
50664 C 38.2709 1.87712 102.366 C 0.0 **** 0.0
50665 C 38.5288 0.448401 101.831 C 0.0 **** 0.0
50666 C 37.7495 -0.567159 102.703 C 0.0 **** 0.0
50667 O 38.8355 2.83122 101.449 O 0.0 **** 0.0
50668 C 38.791 4.15733 101.972 C 0.0 **** 0.0
50669 C 39.8129 4.3351 103.103 C 0.0 **** 0.0
50670 C 39.7411 3.19107 104.134 C 0.0 **** 0.0
50671 C 39.6179 5.69839 103.746 C 0.0 **** 0.0
50672 C 38.3144 5.99495 104.21 C 0.0 **** 0.0
50673 C 37.4142 6.01684 102.943 C 0.0 **** 0.0
50674 C 37.3332 4.61918 102.286 C 0.0 **** 0.0
50675 C 35.9777 6.48161 103.277 C 0.0 **** 0.0
50676 C 35.9873 7.91513 103.841 C 0.0 **** 0.0
50677 C 36.8159 7.79523 105.162 C 0.0 **** 0.0
50678 C 38.2622 7.33772 105.018 C 0.0 **** 0.0
50679 C 39.004 8.41532 104.223 C 0.0 **** 0.0
50680 C 40.5169 8.0831 104.104 C 0.0 **** 0.0
50681 C 40.6435 6.649 103.629 C 0.0 **** 0.0
50682 O 36.6324 8.84958 106.126 O 0.0 **** 0.0
50683 C 36.0815 9.99006 105.506 C 0.0 **** 0.0
50684 C 34.6375 9.75293 104.973 C 0.0 **** 0.0
50685 C 34.6149 8.41481 104.268 C 0.0 **** 0.0
50686 C 36.3283 4.57044 101.104 C 0.0 **** 0.0
50687 C 34.8979 5.00334 101.509 C 0.0 **** 0.0
50688 C 35.0544 6.43313 102.048 C 0.0 **** 0.0
50689 C 33.8094 4.78681 100.5 C 0.0 **** 0.0
50690 C 34.1086 4.31544 99.2598 C 0.0 **** 0.0
50691 C 35.5133 3.83331 98.8583 C 0.0 **** 0.0
50692 C 36.5954 4.19069 99.8545 C 0.0 **** 0.0
50693 C 33.0107 4.31783 98.163 C 0.0 **** 0.0
50694 C 31.8905 5.2769 98.5425 C 0.0 **** 0.0
50695 C 31.3964 4.9185 99.9478 C 0.0 **** 0.0
50696 C 32.3542 4.80783 100.906 C 0.0 **** 0.0
50697 C 31.9955 4.86637 102.4 C 0.0 **** 0.0
50698 C 30.523 4.48394 102.729 C 0.0 **** 0.0
50699 C 29.6483 5.2623 101.726 C 0.0 **** 0.0
50700 C 29.9436 4.81676 100.304 C 0.0 **** 0.0
50701 C 33.4731 8.16587 103.303 C 0.0 **** 0.0
50702 C 33.8666 7.46754 101.99 C 0.0 **** 0.0
50703 C 34.4211 10.9789 104.09 C 0.0 **** 0.0
50704 C 33.1337 10.9034 103.254 C 0.0 **** 0.0
50705 S 32.1049 9.38163 103.181 S 0.0 **** 0.0
50706 C 32.5686 12.1738 102.549 C 0.0 **** 0.0
50707 C 32.675 13.374 103.472 C 0.0 **** 0.0
50708 C 34.1048 13.4212 104.01 C 0.0 **** 0.0
50709 C 34.3754 12.2713 104.922 C 0.0 **** 0.0
50710 C 34.5082 14.7976 104.627 C 0.0 **** 0.0
50711 C 34.0192 16.0064 103.778 C 0.0 **** 0.0
50712 C 32.5049 15.8705 103.617 C 0.0 **** 0.0
50713 C 32.2741 14.6624 102.715 C 0.0 **** 0.0
50714 C 31.8099 17.1294 103.105 C 0.0 **** 0.0
50715 C 32.3694 18.3753 103.801 C 0.0 **** 0.0
50716 C 33.8986 18.5381 103.675 C 0.0 **** 0.0
50717 C 34.4385 17.3295 104.451 C 0.0 **** 0.0
50718 C 35.5856 12.489 105.885 C 0.0 **** 0.0
50719 C 36.0741 11.1585 106.505 C 0.0 **** 0.0
50720 C 36.0502 14.8454 104.77 C 0.0 **** 0.0
50721 C 36.6442 13.5159 105.388 C 0.0 **** 0.0
50722 C 35.9301 17.4034 104.677 C 0.0 **** 0.0
50723 C 36.4461 16.1524 105.429 C 0.0 **** 0.0
50724 C 34.3148 19.8444 104.348 C 0.0 **** 0.0
50725 C 35.7199 19.9913 104.901 C 0.0 **** 0.0
50726 C 36.339 18.6612 105.447 C 0.0 **** 0.0
50727 O 31.5698 19.4807 103.475 O 0.0 **** 0.0
50728 C 30.4232 19.467 104.315 C 0.0 **** 0.0
50729 C 29.7622 18.0286 104.405 C 0.0 **** 0.0
50730 C 30.2321 17.0995 103.273 C 0.0 **** 0.0
50731 C 28.2241 18.0052 104.465 C 0.0 **** 0.0
50732 C 27.7729 19.1176 105.365 C 0.0 **** 0.0
50733 C 28.269 20.5362 104.97 C 0.0 **** 0.0
50734 C 29.4369 20.5461 103.942 C 0.0 **** 0.0
50735 C 30.1573 21.9434 103.933 C 0.0 **** 0.0
50736 C 29.287 23.0752 104.491 C 0.0 **** 0.0
50737 C 28.7049 22.7426 105.874 C 0.0 **** 0.0
50738 N 28.6668 21.314 106.168 N 0.0 **** 0.0
50739 C 37.7199 13.7662 106.442 C 0.0 **** 0.0
50740 C 38.6626 14.9247 106.051 C 0.0 **** 0.0
50741 C 37.9899 16.1994 105.578 C 0.0 **** 0.0
50742 O 39.6098 15.1621 107.074 O 0.0 **** 0.0
50743 C 40.2783 13.9575 107.438 C 0.0 **** 0.0
50744 C 39.3476 12.7431 107.663 C 0.0 **** 0.0
50745 O 38.4984 12.5869 106.589 O 0.0 **** 0.0
50746 C 38.5412 12.8258 108.972 C 0.0 **** 0.0
50747 C 38.7399 14.1047 109.802 C 0.0 **** 0.0
50748 C 40.2115 14.4309 109.995 C 0.0 **** 0.0
50749 C 41.0946 14.176 108.715 C 0.0 **** 0.0
50750 C 37.9003 18.6903 105.469 C 0.0 **** 0.0
50751 C 38.44 17.4902 106.231 C 0.0 **** 0.0
50752 C 36.7467 20.7651 104.078 C 0.0 **** 0.0
50753 C 37.8689 21.1891 105.047 C 0.0 **** 0.0
50754 C 38.4725 20.0427 105.844 C 0.0 **** 0.0
50755 C 36.1614 22.0404 103.48 C 0.0 **** 0.0
50756 C 34.972 21.6585 102.612 C 0.0 **** 0.0
50757 C 33.8682 21.126 103.569 C 0.0 **** 0.0
50758 O 38.879 21.8769 104.32 O 0.0 **** 0.0
50759 C 38.326 23.0941 103.904 C 0.0 **** 0.0
50760 C 37.247 22.8498 102.831 C 0.0 **** 0.0
50761 C 34.5566 22.6804 101.502 C 0.0 **** 0.0
50762 C 35.5766 23.8917 101.256 C 0.0 **** 0.0
50763 C 36.6329 24.1251 102.335 C 0.0 **** 0.0
50764 C 34.8149 25.2262 100.978 C 0.0 **** 0.0
50765 C 33.6959 24.9564 99.948 C 0.0 **** 0.0
50766 C 32.5815 24.0775 100.478 C 0.0 **** 0.0
50767 C 33.115 23.1858 101.629 C 0.0 **** 0.0
50768 C 37.7012 25.114 101.866 C 0.0 **** 0.0
50769 C 38.784 25.3359 102.941 C 0.0 **** 0.0
50770 C 39.445 24.0088 103.359 C 0.0 **** 0.0
50771 C 35.8316 26.3248 100.518 C 0.0 **** 0.0
50772 C 37.028 26.4656 101.497 C 0.0 **** 0.0
50773 C 30.1323 4.73273 104.244 C 0.0 **** 0.0
50774 C 29.0961 5.79478 104.514 C 0.0 **** 0.0
50775 C 29.6933 3.45385 104.933 C 0.0 **** 0.0
50776 O 29.7174 15.8039 103.573 O 0.0 **** 0.0
50777 C 40.4682 24.2878 104.505 C 0.0 **** 0.0
50778 C 41.503 25.3075 104.032 C 0.0 **** 0.0
50779 C 40.8412 26.6065 103.589 C 0.0 **** 0.0
50780 C 39.7891 26.3832 102.491 C 0.0 **** 0.0
50781 C 39.1191 27.7004 102.092 C 0.0 **** 0.0
50782 C 40.2102 28.6605 101.58 C 0.0 **** 0.0
50783 C 41.3089 28.8622 102.632 C 0.0 **** 0.0
50784 C 41.8997 27.5263 102.983 C 0.0 **** 0.0
50785 C 42.3571 29.6979 101.924 C 0.0 **** 0.0
50786 C 41.7139 31.0649 101.664 C 0.0 **** 0.0
50787 C 40.6265 30.9515 100.616 C 0.0 **** 0.0
50788 C 39.5502 30.0082 101.207 C 0.0 **** 0.0
50789 C 38.412 29.8766 100.211 C 0.0 **** 0.0
50790 C 37.3755 28.8716 100.738 C 0.0 **** 0.0
50791 C 38.0726 27.5046 101.017 C 0.0 **** 0.0
50792 C 37.7607 31.2467 100.021 C 0.0 **** 0.0
50793 C 38.8211 32.2142 99.4415 C 0.0 **** 0.0
50794 C 40.0035 32.3056 100.389 C 0.0 **** 0.0
50795 C 35.1726 27.6889 100.526 C 0.0 **** 0.0
50796 C 36.1488 28.701 99.8499 C 0.0 **** 0.0
50797 C 36.4384 31.1969 99.1885 C 0.0 **** 0.0
50798 C 35.4817 30.0936 99.6662 C 0.0 **** 0.0
50799 C 34.1704 30.0455 98.8399 C 0.0 **** 0.0
50800 C 33.9847 31.2427 97.8415 C 0.0 **** 0.0
50801 C 34.3861 32.5891 98.4793 C 0.0 **** 0.0
50802 C 35.6701 32.52 99.2542 C 0.0 **** 0.0
50803 O 35.9743 33.3583 100.063 O 0.0 **** 0.0
50804 H 36.683 -0.939287 107.138 H 0.0 **** 0.0
50805 H 36.6789 0.749804 106.948 H 0.0 **** 0.0
50806 H 36.0904 -1.19663 104.873 H 0.0 **** 0.0
50807 H 36.2745 0.630134 104.716 H 0.0 **** 0.0
50808 H 38.5881 -1.36218 104.561 H 0.0 **** 0.0
50809 H 40.0083 0.44596 104.246 H 0.0 **** 0.0
50810 H 38.6917 1.83594 106.527 H 0.0 **** 0.0
50811 H 40.2372 0.908002 106.416 H 0.0 **** 0.0
50812 H 37.7672 2.44055 104.431 H 0.0 **** 0.0
50813 H 37.1999 1.99937 102.318 H 0.0 **** 0.0
50814 H 39.6189 0.215997 101.777 H 0.0 **** 0.0
50815 H 38.2359 0.404338 100.783 H 0.0 **** 0.0
50816 H 38.0267 -1.63861 102.477 H 0.0 **** 0.0
50817 H 36.6508 -0.414731 102.574 H 0.0 **** 0.0
50818 H 39.0961 4.82869 101.165 H 0.0 **** 0.0
50819 H 40.8111 4.28922 102.594 H 0.0 **** 0.0
50820 H 39.6892 3.66125 105.156 H 0.0 **** 0.0
50821 H 40.7455 2.6769 104.095 H 0.0 **** 0.0
50822 H 36.909 3.92198 103.066 H 0.0 **** 0.0
50823 H 38.564 8.46862 103.195 H 0.0 **** 0.0
50824 H 38.8888 9.40014 104.736 H 0.0 **** 0.0
50825 H 40.9302 8.18589 105.092 H 0.0 **** 0.0
50826 H 41.1132 8.77737 103.467 H 0.0 **** 0.0
50827 H 41.5929 6.26823 103.274 H 0.0 **** 0.0
50828 H 34.6413 4.3393 102.361 H 0.0 **** 0.0
50829 H 35.772 4.33717 97.8789 H 0.0 **** 0.0
50830 H 35.4569 2.75502 98.693 H 0.0 **** 0.0
50831 H 37.6168 3.95763 99.4959 H 0.0 **** 0.0
50832 H 33.3661 4.66268 97.1557 H 0.0 **** 0.0
50833 H 32.6084 3.31203 97.9494 H 0.0 **** 0.0
50834 H 31.0571 5.27659 97.7788 H 0.0 **** 0.0
50835 H 32.2523 6.33461 98.5041 H 0.0 **** 0.0
50836 H 32.6254 4.18355 103.001 H 0.0 **** 0.0
50837 H 32.1538 5.86403 102.809 H 0.0 **** 0.0
50838 H 30.4269 3.41592 102.48 H 0.0 **** 0.0
50839 H 29.9479 6.34911 101.779 H 0.0 **** 0.0
50840 H 28.5369 5.14412 101.946 H 0.0 **** 0.0
50841 H 29.2999 5.4518 99.6408 H 0.0 **** 0.0
50842 H 29.6362 3.79266 100.147 H 0.0 **** 0.0
50843 H 34.0772 8.18346 101.152 H 0.0 **** 0.0
50844 H 33.0789 12.3577 101.564 H 0.0 **** 0.0
50845 H 31.2614 14.5211 102.339 H 0.0 **** 0.0
50846 H 35.5393 10.9319 107.371 H 0.0 **** 0.0
50847 H 30.7952 19.637 105.333 H 0.0 **** 0.0
50848 H 30.1361 17.6031 105.361 H 0.0 **** 0.0
50849 H 29.815 17.4431 102.315 H 0.0 **** 0.0
50850 H 27.7714 18.1082 103.434 H 0.0 **** 0.0
50851 H 27.8203 17.0333 104.894 H 0.0 **** 0.0
50852 H 28.1913 18.8348 106.392 H 0.0 **** 0.0
50853 H 26.6937 19.1024 105.412 H 0.0 **** 0.0
50854 H 27.4636 21.0318 104.386 H 0.0 **** 0.0
50855 H 29.0987 20.3687 102.897 H 0.0 **** 0.0
50856 H 31.1201 21.9201 104.573 H 0.0 **** 0.0
50857 H 30.4904 22.2389 102.903 H 0.0 **** 0.0
50858 H 28.4439 23.298 103.808 H 0.0 **** 0.0
50859 H 29.9131 23.9883 104.577 H 0.0 **** 0.0
50860 H 27.6973 23.1921 106.029 H 0.0 **** 0.0
50861 H 29.3672 23.2589 106.632 H 0.0 **** 0.0
50862 H 29.5779 21.0056 106.595 H 0.0 **** 0.0
50863 H 40.9954 13.7165 106.635 H 0.0 **** 0.0
50864 H 40.0238 11.8264 107.733 H 0.0 **** 0.0
50865 H 37.452 12.7034 108.761 H 0.0 **** 0.0
50866 H 38.8518 11.9276 109.527 H 0.0 **** 0.0
50867 H 38.2043 13.9826 110.78 H 0.0 **** 0.0
50868 H 38.304 14.9257 109.223 H 0.0 **** 0.0
50869 H 40.5968 13.7819 110.793 H 0.0 **** 0.0
50870 H 40.2684 15.4936 110.278 H 0.0 **** 0.0
50871 H 41.6146 13.207 108.865 H 0.0 **** 0.0
50872 H 41.8736 14.9526 108.556 H 0.0 **** 0.0
50873 H 38.1004 17.4751 107.274 H 0.0 **** 0.0
50874 H 39.573 20.023 105.76 H 0.0 **** 0.0
50875 H 33.6021 21.9368 104.307 H 0.0 **** 0.0
50876 H 34.5587 22.0443 100.6 H 0.0 **** 0.0
50877 H 36.1513 23.6102 100.329 H 0.0 **** 0.0
50878 H 34.3648 25.5779 101.915 H 0.0 **** 0.0
50879 H 34.2038 24.4158 99.1087 H 0.0 **** 0.0
50880 H 33.2472 25.905 99.5025 H 0.0 **** 0.0
50881 H 32.2169 23.4721 99.684 H 0.0 **** 0.0
50882 H 31.6969 24.7146 100.842 H 0.0 **** 0.0
50883 H 32.4421 22.2297 101.654 H 0.0 **** 0.0
50884 H 32.9087 23.6968 102.614 H 0.0 **** 0.0
50885 H 31.0758 4.94946 104.779 H 0.0 **** 0.0
50886 H 29.4429 6.83602 104.188 H 0.0 **** 0.0
50887 H 28.9917 5.87011 105.617 H 0.0 **** 0.0
50888 H 28.0641 5.51856 104.143 H 0.0 **** 0.0
50889 H 30.5233 2.69222 104.896 H 0.0 **** 0.0
50890 H 28.788 3.0527 104.398 H 0.0 **** 0.0
50891 H 29.5121 3.63022 106.053 H 0.0 **** 0.0
50892 H 28.9814 15.6519 102.944 H 0.0 **** 0.0
50893 H 41.0041 23.347 104.785 H 0.0 **** 0.0
50894 H 42.1291 25.5199 104.925 H 0.0 **** 0.0
50895 H 42.6747 27.6517 103.729 H 0.0 **** 0.0
50896 H 43.2858 29.7516 102.521 H 0.0 **** 0.0
50897 H 42.4746 31.829 101.361 H 0.0 **** 0.0
50898 H 38.3634 33.245 99.3677 H 0.0 **** 0.0
50899 H 40.7198 33.0184 99.943 H 0.0 **** 0.0
50900 H 34.1287 27.6256 100.143 H 0.0 **** 0.0
50901 H 34.1034 29.0927 98.2904 H 0.0 **** 0.0
50902 H 33.3725 30.115 99.6063 H 0.0 **** 0.0
50903 H 32.9553 31.2154 97.3849 H 0.0 **** 0.0
50904 H 34.6889 31.1041 96.9798 H 0.0 **** 0.0
50905 H 33.5464 32.8658 99.1877 H 0.0 **** 0.0
50906 H 34.5139 33.3322 97.7053 H 0.0 **** 0.0
50907 C 17.3912 54.8995 92.6328 C 0.0 **** 0.0
50908 C 17.3472 55.8923 93.7678 C 0.0 **** 0.0
50909 C 18.6315 56.7718 93.7784 C 0.0 **** 0.0
50910 C 19.9338 55.9219 93.6555 C 0.0 **** 0.0
50911 C 19.7591 54.9089 92.5144 C 0.0 **** 0.0
50912 O 18.613 54.1168 92.6985 O 0.0 **** 0.0
50913 C 20.3421 55.305 95.0234 C 0.0 **** 0.0
50914 C 20.2605 56.3333 96.2396 C 0.0 **** 0.0
50915 C 19.9271 57.7423 95.7662 C 0.0 **** 0.0
50916 C 18.6366 57.774 94.9587 C 0.0 **** 0.0
50917 O 21.439 56.4623 97.0131 O 0.0 **** 0.0
50918 C 21.9988 55.2497 97.3812 C 0.0 **** 0.0
50919 C 22.67 54.645 96.1961 C 0.0 **** 0.0
50920 C 21.7741 54.6518 94.9464 C 0.0 **** 0.0
50921 C 23.2222 53.2522 96.5937 C 0.0 **** 0.0
50922 C 22.3859 52.3264 97.3792 C 0.0 **** 0.0
50923 C 21.7656 52.9705 98.5733 C 0.0 **** 0.0
50924 C 21.0353 54.2366 98.1097 C 0.0 **** 0.0
50925 C 20.726 52.0439 99.2527 C 0.0 **** 0.0
50926 C 21.2686 50.6603 99.5997 C 0.0 **** 0.0
50927 C 22.266 50.0475 98.5738 C 0.0 **** 0.0
50928 C 23.1363 51.1096 97.8942 C 0.0 **** 0.0
50929 C 24.1021 50.5355 96.8246 C 0.0 **** 0.0
50930 C 25.0976 51.5604 96.4248 C 0.0 **** 0.0
50931 C 24.5095 52.9003 96.1066 C 0.0 **** 0.0
50932 O 21.7148 49.1092 97.6798 O 0.0 **** 0.0
50933 C 21.0811 48.1166 98.4609 C 0.0 **** 0.0
50934 C 19.7867 48.6531 99.1405 C 0.0 **** 0.0
50935 C 20.1325 49.7517 100.12 C 0.0 **** 0.0
50936 C 20.3447 54.8439 99.3657 C 0.0 **** 0.0
50937 C 19.2598 53.9846 99.9278 C 0.0 **** 0.0
50938 C 19.9876 52.7399 100.427 C 0.0 **** 0.0
50939 C 18.4474 54.6247 101.065 C 0.0 **** 0.0
50940 C 19.0686 55.4928 101.865 C 0.0 **** 0.0
50941 C 20.3854 56.1458 101.504 C 0.0 **** 0.0
50942 C 20.9071 55.8081 100.104 C 0.0 **** 0.0
50943 C 18.4582 55.845 103.205 C 0.0 **** 0.0
50944 C 17.6208 54.6695 103.74 C 0.0 **** 0.0
50945 C 16.7135 54.039 102.739 C 0.0 **** 0.0
50946 C 17.0843 54.0756 101.43 C 0.0 **** 0.0
50947 C 16.1524 53.5067 100.343 C 0.0 **** 0.0
50948 C 14.7274 53.2373 100.775 C 0.0 **** 0.0
50949 C 14.7438 52.5203 102.191 C 0.0 **** 0.0
50950 C 15.4459 53.3723 103.223 C 0.0 **** 0.0
50951 C 18.8213 50.5301 100.487 C 0.0 **** 0.0
50952 C 19.1237 51.8039 101.264 C 0.0 **** 0.0
50953 C 19.027 47.5387 99.9395 C 0.0 **** 0.0
50954 C 17.6388 48.0616 100.46 C 0.0 **** 0.0
50955 S 17.7627 49.511 101.553 S 0.0 **** 0.0
50956 C 16.8287 46.9786 101.218 C 0.0 **** 0.0
50957 C 16.7558 45.6986 100.37 C 0.0 **** 0.0
50958 C 18.1567 45.1889 100.011 C 0.0 **** 0.0
50959 C 18.8413 46.2368 99.1357 C 0.0 **** 0.0
50960 C 18.0067 43.8307 99.2953 C 0.0 **** 0.0
50961 C 17.4561 42.8197 100.314 C 0.0 **** 0.0
50962 C 16.1046 43.1878 100.767 C 0.0 **** 0.0
50963 C 16.0147 44.6354 101.22 C 0.0 **** 0.0
50964 C 15.4844 42.1493 101.761 C 0.0 **** 0.0
50965 C 15.6362 40.663 101.366 C 0.0 **** 0.0
50966 C 16.9099 40.3173 100.611 C 0.0 **** 0.0
50967 C 17.4946 41.4047 99.7331 C 0.0 **** 0.0
50968 C 20.201 45.7916 98.4799 C 0.0 **** 0.0
50969 C 20.6833 46.9396 97.5507 C 0.0 **** 0.0
50970 C 19.4643 43.427 98.8725 C 0.0 **** 0.0
50971 C 19.9065 44.4228 97.8388 C 0.0 **** 0.0
50972 C 18.9966 41.0488 99.4646 C 0.0 **** 0.0
50973 C 19.4464 42.0032 98.3484 C 0.0 **** 0.0
50974 C 16.7611 39.0943 99.6904 C 0.0 **** 0.0
50975 C 18.1436 38.4653 99.4764 C 0.0 **** 0.0
50976 C 19.1875 39.5392 99.016 C 0.0 **** 0.0
50977 O 15.8013 39.8593 102.533 O 0.0 **** 0.0
50978 C 14.6378 39.9197 103.304 C 0.0 **** 0.0
50979 C 14.4814 41.3838 103.952 C 0.0 **** 0.0
50980 C 15.4815 42.4108 103.263 C 0.0 **** 0.0
50981 C 14.6934 41.4051 105.482 C 0.0 **** 0.0
50982 C 13.8764 40.3312 106.237 C 0.0 **** 0.0
50983 C 13.7915 38.9344 105.528 C 0.0 **** 0.0
50984 C 14.7367 38.7615 104.35 C 0.0 **** 0.0
50985 C 14.5927 37.3763 103.748 C 0.0 **** 0.0
50986 C 13.146 36.9958 103.507 C 0.0 **** 0.0
50987 C 12.2662 37.2481 104.706 C 0.0 **** 0.0
50988 N 12.3645 38.647 105.119 N 0.0 **** 0.0
50989 C 21.1208 43.948 97.0625 C 0.0 **** 0.0
50990 C 21.0876 42.4756 96.6338 C 0.0 **** 0.0
50991 C 20.8407 41.5938 97.8217 C 0.0 **** 0.0
50992 O 22.1802 42.0946 95.7962 O 0.0 **** 0.0
50993 C 23.2378 43.0726 95.8861 C 0.0 **** 0.0
50994 C 22.7135 44.5552 95.6453 C 0.0 **** 0.0
50995 O 21.3342 44.6624 95.8819 O 0.0 **** 0.0
50996 C 23.0604 45.0849 94.2503 C 0.0 **** 0.0
50997 C 24.5642 45.1216 94.0139 C 0.0 **** 0.0
50998 C 25.2787 44.0013 94.7423 C 0.0 **** 0.0
50999 C 24.4157 42.7131 94.9723 C 0.0 **** 0.0
51000 C 19.7214 39.312 97.5691 C 0.0 **** 0.0
51001 C 20.9946 40.1146 97.3966 C 0.0 **** 0.0
51002 C 18.0109 37.3458 98.4951 C 0.0 **** 0.0
51003 C 19.3944 36.817 98.1289 C 0.0 **** 0.0
51004 C 20.1883 37.8956 97.4186 C 0.0 **** 0.0
51005 C 17.1533 36.2285 99.0506 C 0.0 **** 0.0
51006 C 15.7573 36.7198 99.2775 C 0.0 **** 0.0
51007 C 15.785 38.0235 100.124 C 0.0 **** 0.0
51008 O 19.3462 35.7175 97.2667 O 0.0 **** 0.0
51009 C 18.8309 34.6682 97.9757 C 0.0 **** 0.0
51010 C 17.321 34.9619 98.2237 C 0.0 **** 0.0
51011 C 14.9178 35.5473 99.8068 C 0.0 **** 0.0
51012 C 15.1588 34.0136 99.3268 C 0.0 **** 0.0
51013 C 16.6451 33.745 98.7928 C 0.0 **** 0.0
51014 C 14.0771 33.4349 98.3527 C 0.0 **** 0.0
51015 C 12.6388 33.5584 98.9558 C 0.0 **** 0.0
51016 C 12.5512 34.7053 100.05 C 0.0 **** 0.0
51017 C 13.4269 35.8895 99.6905 C 0.0 **** 0.0
51018 C 16.7609 32.7257 97.7059 C 0.0 **** 0.0
51019 C 18.2344 32.279 97.6554 C 0.0 **** 0.0
51020 C 19.0278 33.4326 97.1536 C 0.0 **** 0.0
51021 C 14.3741 31.9891 97.8429 C 0.0 **** 0.0
51022 C 15.8418 31.5512 98.0101 C 0.0 **** 0.0
51023 C 13.8433 52.5687 99.7154 C 0.0 **** 0.0
51024 C 14.0003 51.0645 99.6667 C 0.0 **** 0.0
51025 C 12.3651 52.8874 99.8463 C 0.0 **** 0.0
51026 O 15.1151 43.7313 103.529 O 0.0 **** 0.0
51027 C 20.4841 33.072 96.9309 C 0.0 **** 0.0
51028 C 20.583 31.998 95.8406 C 0.0 **** 0.0
51029 C 19.8358 30.7987 96.3586 C 0.0 **** 0.0
51030 C 18.3452 31.1209 96.6269 C 0.0 **** 0.0
51031 C 17.5541 29.9283 97.1087 C 0.0 **** 0.0
51032 C 17.8028 28.7443 96.1608 C 0.0 **** 0.0
51033 C 19.2864 28.4146 96.0912 C 0.0 **** 0.0
51034 C 19.9848 29.6428 95.4173 C 0.0 **** 0.0
51035 C 19.478 27.1381 95.2644 C 0.0 **** 0.0
51036 C 18.7389 25.9528 95.8232 C 0.0 **** 0.0
51037 C 17.1961 26.2846 95.9341 C 0.0 **** 0.0
51038 C 16.9233 27.5725 96.6549 C 0.0 **** 0.0
51039 C 15.4303 27.9811 96.5965 C 0.0 **** 0.0
51040 C 15.2037 29.1584 97.4915 C 0.0 **** 0.0
51041 C 16.1016 30.3537 97.0915 C 0.0 **** 0.0
51042 C 14.4803 26.7621 96.8034 C 0.0 **** 0.0
51043 C 15.2191 25.5761 97.4487 C 0.0 **** 0.0
51044 C 16.4241 25.1077 96.5393 C 0.0 **** 0.0
51045 C 13.3637 30.816 98.1304 C 0.0 **** 0.0
51046 C 13.7796 29.5996 97.2389 C 0.0 **** 0.0
51047 C 13.2764 27.2008 97.6453 C 0.0 **** 0.0
51048 C 12.6995 28.5109 97.1664 C 0.0 **** 0.0
51049 C 12.168 28.4443 95.6732 C 0.0 **** 0.0
51050 C 11.7439 27.0465 95.1486 C 0.0 **** 0.0
51051 C 11.3795 26.0284 96.2722 C 0.0 **** 0.0
51052 C 12.168 26.2105 97.525 C 0.0 **** 0.0
51053 O 11.8481 25.5569 98.5286 O 0.0 **** 0.0
51054 H 17.3184 55.397 91.6506 H 0.0 **** 0.0
51055 H 16.5092 54.269 92.757 H 0.0 **** 0.0
51056 H 16.4395 56.5354 93.6852 H 0.0 **** 0.0
51057 H 17.2532 55.3199 94.744 H 0.0 **** 0.0
51058 H 18.5331 57.3656 92.8753 H 0.0 **** 0.0
51059 H 20.7515 56.666 93.4068 H 0.0 **** 0.0
51060 H 20.6353 54.2579 92.5426 H 0.0 **** 0.0
51061 H 19.7887 55.3441 91.5331 H 0.0 **** 0.0
51062 H 19.6112 54.4649 95.2422 H 0.0 **** 0.0
51063 H 19.4277 55.9928 96.9164 H 0.0 **** 0.0
51064 H 20.7805 58.2393 95.1533 H 0.0 **** 0.0
51065 H 19.8241 58.3883 96.6567 H 0.0 **** 0.0
51066 H 18.6409 58.8224 94.5491 H 0.0 **** 0.0
51067 H 17.7927 57.5966 95.6813 H 0.0 **** 0.0
51068 H 22.8578 55.505 98.0612 H 0.0 **** 0.0
51069 H 23.4556 55.362 95.9692 H 0.0 **** 0.0
51070 H 21.676 53.6017 94.6121 H 0.0 **** 0.0
51071 H 22.3234 55.2245 94.2073 H 0.0 **** 0.0
51072 H 20.2591 53.8311 97.3929 H 0.0 **** 0.0
51073 H 24.6537 49.6392 97.2259 H 0.0 **** 0.0
51074 H 23.4989 50.238 95.9411 H 0.0 **** 0.0
51075 H 25.6518 51.2259 95.5232 H 0.0 **** 0.0
51076 H 25.7881 51.5879 97.3291 H 0.0 **** 0.0
51077 H 25.125 53.6091 95.5563 H 0.0 **** 0.0
51078 H 18.619 53.7305 99.1205 H 0.0 **** 0.0
51079 H 21.1322 55.7954 102.257 H 0.0 **** 0.0
51080 H 20.312 57.2768 101.676 H 0.0 **** 0.0
51081 H 21.8091 56.3095 99.7471 H 0.0 **** 0.0
51082 H 19.1691 56.1666 103.953 H 0.0 **** 0.0
51083 H 17.7741 56.7214 103.077 H 0.0 **** 0.0
51084 H 16.9892 55.081 104.602 H 0.0 **** 0.0
51085 H 18.2512 53.8801 104.207 H 0.0 **** 0.0
51086 H 16.1922 54.0739 99.4188 H 0.0 **** 0.0
51087 H 16.5335 52.4997 100.131 H 0.0 **** 0.0
51088 H 14.3369 54.2188 100.915 H 0.0 **** 0.0
51089 H 15.2589 51.4972 102.154 H 0.0 **** 0.0
51090 H 13.6948 52.3727 102.557 H 0.0 **** 0.0
51091 H 15.7243 52.7203 104.109 H 0.0 **** 0.0
51092 H 14.7655 54.1903 103.626 H 0.0 **** 0.0
51093 H 19.5685 51.5678 102.226 H 0.0 **** 0.0
51094 H 15.7841 47.4301 101.296 H 0.0 **** 0.0
51095 H 14.9555 44.905 101.255 H 0.0 **** 0.0
51096 H 21.5445 46.666 96.9411 H 0.0 **** 0.0
51097 H 13.743 39.7028 102.683 H 0.0 **** 0.0
51098 H 13.4237 41.7803 103.769 H 0.0 **** 0.0
51099 H 16.5207 42.2689 103.594 H 0.0 **** 0.0
51100 H 15.7626 41.198 105.676 H 0.0 **** 0.0
51101 H 14.4656 42.4009 105.93 H 0.0 **** 0.0
51102 H 12.8388 40.7081 106.413 H 0.0 **** 0.0
51103 H 14.287 40.2143 107.249 H 0.0 **** 0.0
51104 H 14.0568 38.1729 106.339 H 0.0 **** 0.0
51105 H 15.7892 38.8448 104.724 H 0.0 **** 0.0
51106 H 15.1273 37.2983 102.767 H 0.0 **** 0.0
51107 H 15.0012 36.5891 104.467 H 0.0 **** 0.0
51108 H 13.0221 35.9051 103.147 H 0.0 **** 0.0
51109 H 12.8413 37.5919 102.594 H 0.0 **** 0.0
51110 H 12.541 36.5715 105.539 H 0.0 **** 0.0
51111 H 11.2307 37.0518 104.361 H 0.0 **** 0.0
51112 H 12.1443 39.2955 104.298 H 0.0 **** 0.0
51113 H 23.5506 43.0601 96.9337 H 0.0 **** 0.0
51114 H 23.1919 45.2451 96.3863 H 0.0 **** 0.0
51115 H 22.6002 44.4364 93.4518 H 0.0 **** 0.0
51116 H 22.6926 46.1029 94.1014 H 0.0 **** 0.0
51117 H 25.0008 46.068 94.4191 H 0.0 **** 0.0
51118 H 24.7525 45.1234 92.8925 H 0.0 **** 0.0
51119 H 25.7037 44.3427 95.7047 H 0.0 **** 0.0
51120 H 26.1249 43.6624 94.116 H 0.0 **** 0.0
51121 H 25.0551 41.9725 95.5123 H 0.0 **** 0.0
51122 H 24.1373 42.2021 94.0223 H 0.0 **** 0.0
51123 H 21.8502 39.6752 97.9603 H 0.0 **** 0.0
51124 H 20.5152 37.6071 96.4113 H 0.0 **** 0.0
51125 H 14.8131 38.4529 100.129 H 0.0 **** 0.0
51126 H 15.142 35.5653 100.893 H 0.0 **** 0.0
51127 H 15.0942 33.3389 100.199 H 0.0 **** 0.0
51128 H 14.187 34.0809 97.3947 H 0.0 **** 0.0
51129 H 12.3111 32.6289 99.4927 H 0.0 **** 0.0
51130 H 11.9139 33.731 98.1068 H 0.0 **** 0.0
51131 H 12.8708 34.2995 101.011 H 0.0 **** 0.0
51132 H 11.482 34.9952 100.086 H 0.0 **** 0.0
51133 H 13.2205 36.6959 100.382 H 0.0 **** 0.0
51134 H 13.2067 36.1917 98.6239 H 0.0 **** 0.0
51135 H 14.1398 52.9563 98.6966 H 0.0 **** 0.0
51136 H 13.3775 50.6527 98.8265 H 0.0 **** 0.0
51137 H 13.7939 50.5114 100.644 H 0.0 **** 0.0
51138 H 15.0605 50.8045 99.3972 H 0.0 **** 0.0
51139 H 12.2216 53.9869 99.9866 H 0.0 **** 0.0
51140 H 11.9414 52.2453 100.627 H 0.0 **** 0.0
51141 H 11.8816 52.6341 98.8705 H 0.0 **** 0.0
51142 H 15.3755 43.9551 104.48 H 0.0 **** 0.0
51143 H 21.0924 33.9632 96.5486 H 0.0 **** 0.0
51144 H 21.6859 31.7931 95.7406 H 0.0 **** 0.0
51145 H 19.5073 29.904 94.4675 H 0.0 **** 0.0
51146 H 20.5598 26.8855 95.3357 H 0.0 **** 0.0
51147 H 18.8801 25.0521 95.1995 H 0.0 **** 0.0
51148 H 14.5023 24.7607 97.6413 H 0.0 **** 0.0
51149 H 16.0214 24.4396 95.7463 H 0.0 **** 0.0
51150 H 13.3882 30.5287 99.1798 H 0.0 **** 0.0
51151 H 11.3718 29.1771 95.5768 H 0.0 **** 0.0
51152 H 12.9433 28.7537 94.9797 H 0.0 **** 0.0
51153 H 12.5264 26.5984 94.4687 H 0.0 **** 0.0
51154 H 10.8275 27.263 94.5305 H 0.0 **** 0.0
51155 H 11.4804 24.9431 95.8924 H 0.0 **** 0.0
51156 H 10.3489 26.1458 96.5807 H 0.0 **** 0.0
51157 C 58.5395 59.9202 38.7964 C 0.0 **** 0.0
51158 C 56.9934 60.0022 38.7572 C 0.0 **** 0.0
51159 C 56.5998 61.4885 38.5271 C 0.0 **** 0.0
51160 C 57.2818 62.3582 39.5956 C 0.0 **** 0.0
51161 C 58.7931 62.0691 39.5758 C 0.0 **** 0.0
51162 O 59.1051 60.7069 39.7973 O 0.0 **** 0.0
51163 C 56.6753 62.0931 41.0177 C 0.0 **** 0.0
51164 C 55.184 61.8096 41.0205 C 0.0 **** 0.0
51165 C 54.4728 62.2878 39.7363 C 0.0 **** 0.0
51166 C 55.0913 61.6612 38.441 C 0.0 **** 0.0
51167 O 54.462 62.293 42.1249 O 0.0 **** 0.0
51168 C 55.1447 62.2305 43.33 C 0.0 **** 0.0
51169 C 56.3449 63.2299 43.2957 C 0.0 **** 0.0
51170 C 57.039 63.2244 41.9287 C 0.0 **** 0.0
51171 C 57.2891 63.0165 44.4738 C 0.0 **** 0.0
51172 C 56.8856 62.1283 45.5431 C 0.0 **** 0.0
51173 C 56.3708 60.7171 45.0694 C 0.0 **** 0.0
51174 C 55.4609 60.773 43.8507 C 0.0 **** 0.0
51175 C 55.8723 59.8957 46.2421 C 0.0 **** 0.0
51176 C 56.9715 59.7292 47.2358 C 0.0 **** 0.0
51177 C 57.5071 61.0777 47.8151 C 0.0 **** 0.0
51178 C 57.9241 62.026 46.6751 C 0.0 **** 0.0
51179 C 58.3089 63.4338 47.1679 C 0.0 **** 0.0
51180 C 59.0427 64.1769 46.0101 C 0.0 **** 0.0
51181 C 58.2638 64.0296 44.7455 C 0.0 **** 0.0
51182 O 58.5576 60.8103 48.7172 O 0.0 **** 0.0
51183 C 58.022 60.138 49.8218 C 0.0 **** 0.0
51184 C 57.5418 58.7273 49.4209 C 0.0 **** 0.0
51185 C 56.4094 59.0175 48.4795 C 0.0 **** 0.0
51186 C 54.2235 59.7962 43.9957 C 0.0 **** 0.0
51187 C 54.6036 58.4046 44.4795 C 0.0 **** 0.0
51188 C 55.3041 58.5192 45.8844 C 0.0 **** 0.0
51189 C 53.4212 57.455 44.5147 C 0.0 **** 0.0
51190 C 52.1629 57.9113 44.4158 C 0.0 **** 0.0
51191 C 51.8247 59.1886 43.7631 C 0.0 **** 0.0
51192 C 52.9368 60.173 43.8855 C 0.0 **** 0.0
51193 C 50.9983 57.0388 44.8587 C 0.0 **** 0.0
51194 C 51.4324 56.2166 46.0509 C 0.0 **** 0.0
51195 C 52.7241 55.491 45.7684 C 0.0 **** 0.0
51196 C 53.6668 56.0796 44.9721 C 0.0 **** 0.0
51197 C 54.9062 55.3212 44.5738 C 0.0 **** 0.0
51198 C 54.667 53.781 44.7181 C 0.0 **** 0.0
51199 C 54.2349 53.4563 46.1712 C 0.0 **** 0.0
51200 C 52.904 54.177 46.5047 C 0.0 **** 0.0
51201 C 55.3359 57.9262 48.3572 C 0.0 **** 0.0
51202 C 54.4608 58.0276 47.0856 C 0.0 **** 0.0
51203 C 56.9406 57.9684 50.6096 C 0.0 **** 0.0
51204 C 56.7373 56.5134 50.2102 C 0.0 **** 0.0
51205 S 56.0222 56.2648 48.545 S 0.0 **** 0.0
51206 C 55.9918 55.761 51.3038 C 0.0 **** 0.0
51207 C 56.7489 55.8469 52.6199 C 0.0 **** 0.0
51208 C 57.2053 57.2851 53.0118 C 0.0 **** 0.0
51209 C 57.8846 57.9969 51.829 C 0.0 **** 0.0
51210 C 58.1103 57.2754 54.2168 C 0.0 **** 0.0
51211 C 57.4818 56.44 55.3688 C 0.0 **** 0.0
51212 C 57.0769 55.0185 54.8853 C 0.0 **** 0.0
51213 C 56.0123 55.1879 53.784 C 0.0 **** 0.0
51214 C 56.5846 54.1558 55.9751 C 0.0 **** 0.0
51215 C 57.437 54.1688 57.2374 C 0.0 **** 0.0
51216 C 57.8631 55.5454 57.7006 C 0.0 **** 0.0
51217 C 58.4446 56.4087 56.5518 C 0.0 **** 0.0
51218 C 58.317 59.4418 52.2053 C 0.0 **** 0.0
51219 C 59.0178 60.114 50.965 C 0.0 **** 0.0
51220 C 58.3096 58.7187 54.6895 C 0.0 **** 0.0
51221 C 59.0719 59.5925 53.5845 C 0.0 **** 0.0
51222 C 58.5977 57.854 57.0757 C 0.0 **** 0.0
51223 C 59.1279 58.7973 56.0002 C 0.0 **** 0.0
51224 C 58.9132 55.5791 58.8299 C 0.0 **** 0.0
51225 C 58.979 56.9679 59.4738 C 0.0 **** 0.0
51226 C 59.4595 57.9405 58.3719 C 0.0 **** 0.0
51227 O 56.6481 53.5847 58.235 O 0.0 **** 0.0
51228 C 56.6204 52.1766 58.0353 C 0.0 **** 0.0
51229 C 56.9223 51.6859 56.6122 C 0.0 **** 0.0
51230 C 56.4637 52.6989 55.5319 C 0.0 **** 0.0
51231 C 56.4115 50.283 56.2717 C 0.0 **** 0.0
51232 C 56.3285 49.4273 57.5278 C 0.0 **** 0.0
51233 C 55.2568 49.9811 58.5264 C 0.0 **** 0.0
51234 C 55.2624 51.5512 58.5915 C 0.0 **** 0.0
51235 C 54.9435 52.0961 60.0347 C 0.0 **** 0.0
51236 C 53.9508 51.1777 60.6945 C 0.0 **** 0.0
51237 C 54.4848 49.7307 60.8364 C 0.0 **** 0.0
51238 N 55.5781 49.4459 59.8706 N 0.0 **** 0.0
51239 C 58.9482 61.0565 54.1609 C 0.0 **** 0.0
51240 C 59.4712 61.2117 55.6216 C 0.0 **** 0.0
51241 C 58.9902 60.1872 56.5913 C 0.0 **** 0.0
51242 O 59.1579 62.5077 56.143 O 0.0 **** 0.0
51243 C 59.6721 63.5065 55.2744 C 0.0 **** 0.0
51244 C 59.2809 63.2517 53.7885 C 0.0 **** 0.0
51245 O 59.7078 61.9647 53.3894 O 0.0 **** 0.0
51246 C 59.9452 64.2518 52.828 C 0.0 **** 0.0
51247 C 60.9822 65.1644 53.5055 C 0.0 **** 0.0
51248 C 61.9005 64.3567 54.3713 C 0.0 **** 0.0
51249 C 61.167 63.7846 55.5816 C 0.0 **** 0.0
51250 C 59.3961 59.3219 58.963 C 0.0 **** 0.0
51251 C 59.8231 60.3071 57.8713 C 0.0 **** 0.0
51252 C 59.9062 57.0117 60.707 C 0.0 **** 0.0
51253 C 59.8986 58.4418 61.2935 C 0.0 **** 0.0
51254 C 60.2811 59.4738 60.1997 C 0.0 **** 0.0
51255 C 59.4465 56.0143 61.7438 C 0.0 **** 0.0
51256 C 59.5008 54.5731 61.2205 C 0.0 **** 0.0
51257 C 58.7708 54.4158 59.8466 C 0.0 **** 0.0
51258 O 60.7672 58.5176 62.4067 O 0.0 **** 0.0
51259 C 60.3611 57.6185 63.4195 C 0.0 **** 0.0
51260 C 60.3815 56.1613 62.8976 C 0.0 **** 0.0
51261 C 58.8236 53.6843 62.2679 C 0.0 **** 0.0
51262 C 59.0633 54.0723 63.7515 C 0.0 **** 0.0
51263 C 60.2747 55.0161 63.921 C 0.0 **** 0.0
51264 C 59.2786 52.8389 64.6772 C 0.0 **** 0.0
51265 C 58.2819 51.7497 64.3724 C 0.0 **** 0.0
51266 C 58.3494 51.2559 62.9245 C 0.0 **** 0.0
51267 C 59.1963 52.1539 62.0419 C 0.0 **** 0.0
51268 C 60.3419 55.5229 65.346 C 0.0 **** 0.0
51269 C 61.5249 56.5034 65.4342 C 0.0 **** 0.0
51270 C 61.2176 57.771 64.6669 C 0.0 **** 0.0
51271 C 59.3115 53.3716 66.0928 C 0.0 **** 0.0
51272 C 60.5071 54.3676 66.2529 C 0.0 **** 0.0
51273 C 55.869 52.9522 44.1869 C 0.0 **** 0.0
51274 C 57.0205 52.8512 45.2538 C 0.0 **** 0.0
51275 C 55.4103 51.5578 43.7197 C 0.0 **** 0.0
51276 O 57.1407 52.3794 54.3583 O 0.0 **** 0.0
51277 C 62.5519 58.4889 64.5688 C 0.0 **** 0.0
51278 C 62.9958 58.9597 65.9804 C 0.0 **** 0.0
51279 C 63.1167 57.7216 66.8836 C 0.0 **** 0.0
51280 C 61.7841 56.9404 66.8971 C 0.0 **** 0.0
51281 C 61.9653 55.6726 67.7059 C 0.0 **** 0.0
51282 C 62.3441 56.0309 69.1439 C 0.0 **** 0.0
51283 C 63.7091 56.7769 69.1474 C 0.0 **** 0.0
51284 C 63.6655 58.0598 68.282 C 0.0 **** 0.0
51285 C 64.2627 57.0792 70.5607 C 0.0 **** 0.0
51286 C 63.3508 56.6258 71.691 C 0.0 **** 0.0
51287 C 62.9051 55.1689 71.5647 C 0.0 **** 0.0
51288 C 62.4225 54.8356 70.1025 C 0.0 **** 0.0
51289 C 61.0979 54.0857 70.0236 C 0.0 **** 0.0
51290 C 60.7991 53.5842 68.5995 C 0.0 **** 0.0
51291 C 60.6789 54.817 67.6912 C 0.0 **** 0.0
51292 C 61.1419 52.9604 71.044 C 0.0 **** 0.0
51293 C 61.2558 53.5305 72.4847 C 0.0 **** 0.0
51294 C 61.7364 54.9754 72.558 C 0.0 **** 0.0
51295 C 59.3706 52.2325 67.0909 C 0.0 **** 0.0
51296 C 59.5058 52.7701 68.5306 C 0.0 **** 0.0
51297 C 59.9306 52.0137 70.9834 C 0.0 **** 0.0
51298 C 59.6524 51.5486 69.5219 C 0.0 **** 0.0
51299 C 58.5091 50.5247 69.5136 C 0.0 **** 0.0
51300 C 57.9239 50.2088 70.913 C 0.0 **** 0.0
51301 C 59.0223 49.7205 71.8577 C 0.0 **** 0.0
51302 C 60.0163 50.8252 71.9023 C 0.0 **** 0.0
51303 O 60.9942 50.7032 72.6153 O 0.0 **** 0.0
51304 H 58.9378 60.2375 37.7966 H 0.0 **** 0.0
51305 H 58.8533 58.842 38.9283 H 0.0 **** 0.0
51306 H 56.6213 59.3164 37.9392 H 0.0 **** 0.0
51307 H 56.6263 59.5643 39.7141 H 0.0 **** 0.0
51308 H 56.9967 61.8122 37.5598 H 0.0 **** 0.0
51309 H 57.0589 63.4253 39.411 H 0.0 **** 0.0
51310 H 59.2693 62.6743 40.3206 H 0.0 **** 0.0
51311 H 59.1841 62.4679 38.5865 H 0.0 **** 0.0
51312 H 57.2398 61.2584 41.4652 H 0.0 **** 0.0
51313 H 55.0848 60.7237 40.983 H 0.0 **** 0.0
51314 H 54.5487 63.3909 39.7659 H 0.0 **** 0.0
51315 H 53.3793 62.1001 39.7426 H 0.0 **** 0.0
51316 H 54.8367 62.3548 37.5993 H 0.0 **** 0.0
51317 H 54.5821 60.7233 38.1747 H 0.0 **** 0.0
51318 H 54.4955 62.703 44.12 H 0.0 **** 0.0
51319 H 55.9206 64.2757 43.4292 H 0.0 **** 0.0
51320 H 58.0895 63.3034 42.041 H 0.0 **** 0.0
51321 H 56.7788 64.2016 41.4941 H 0.0 **** 0.0
51322 H 56.0909 60.2842 43.0646 H 0.0 **** 0.0
51323 H 57.4076 63.9583 47.4334 H 0.0 **** 0.0
51324 H 58.9916 63.3925 48.045 H 0.0 **** 0.0
51325 H 60.1052 63.7478 45.8472 H 0.0 **** 0.0
51326 H 59.0904 65.2527 46.1697 H 0.0 **** 0.0
51327 H 58.4221 64.8366 44.055 H 0.0 **** 0.0
51328 H 55.3373 57.9911 43.784 H 0.0 **** 0.0
51329 H 50.913 59.5936 44.2128 H 0.0 **** 0.0
51330 H 51.6158 58.9677 42.7425 H 0.0 **** 0.0
51331 H 52.7101 61.218 43.6533 H 0.0 **** 0.0
51332 H 50.1493 57.6453 45.1505 H 0.0 **** 0.0
51333 H 50.7049 56.3562 44.0539 H 0.0 **** 0.0
51334 H 50.5613 55.5291 46.2724 H 0.0 **** 0.0
51335 H 51.5979 56.8932 46.9444 H 0.0 **** 0.0
51336 H 55.1532 55.567 43.4897 H 0.0 **** 0.0
51337 H 55.726 55.6306 45.2337 H 0.0 **** 0.0
51338 H 53.7756 53.5665 44.0566 H 0.0 **** 0.0
51339 H 54.9999 53.9014 46.8447 H 0.0 **** 0.0
51340 H 54.1501 52.3379 46.4124 H 0.0 **** 0.0
51341 H 52.9418 54.364 47.6128 H 0.0 **** 0.0
51342 H 52.0669 53.5445 46.2717 H 0.0 **** 0.0
51343 H 53.6058 58.7349 47.2972 H 0.0 **** 0.0
51344 H 55.9265 54.7072 51.0197 H 0.0 **** 0.0
51345 H 55.6713 54.2215 53.4674 H 0.0 **** 0.0
51346 H 59.319 61.1824 51.222 H 0.0 **** 0.0
51347 H 57.343 51.7737 58.7656 H 0.0 **** 0.0
51348 H 58.0254 51.6418 56.535 H 0.0 **** 0.0
51349 H 55.3439 52.5722 55.3784 H 0.0 **** 0.0
51350 H 55.443 50.352 55.7633 H 0.0 **** 0.0
51351 H 57.1294 49.8532 55.5798 H 0.0 **** 0.0
51352 H 57.3001 49.3748 58.0273 H 0.0 **** 0.0
51353 H 56.0547 48.3627 57.2029 H 0.0 **** 0.0
51354 H 54.2673 49.5147 58.1998 H 0.0 **** 0.0
51355 H 54.4468 51.9066 57.9647 H 0.0 **** 0.0
51356 H 55.8383 52.1581 60.6596 H 0.0 **** 0.0
51357 H 54.5837 53.1701 59.9426 H 0.0 **** 0.0
51358 H 53.0571 51.1784 60.0735 H 0.0 **** 0.0
51359 H 53.6975 51.5473 61.6642 H 0.0 **** 0.0
51360 H 53.6395 49.0744 60.6172 H 0.0 **** 0.0
51361 H 54.8384 49.5676 61.8703 H 0.0 **** 0.0
51362 H 56.5087 49.7889 60.1997 H 0.0 **** 0.0
51363 H 59.0954 64.4536 55.4725 H 0.0 **** 0.0
51364 H 58.1904 63.3777 53.6699 H 0.0 **** 0.0
51365 H 60.4443 63.7308 51.9733 H 0.0 **** 0.0
51366 H 59.2364 64.9406 52.3291 H 0.0 **** 0.0
51367 H 60.352 65.8381 54.1339 H 0.0 **** 0.0
51368 H 61.5304 65.7456 52.7532 H 0.0 **** 0.0
51369 H 62.7236 65.0311 54.7972 H 0.0 **** 0.0
51370 H 62.3756 63.5742 53.7404 H 0.0 **** 0.0
51371 H 61.204 64.5611 56.3643 H 0.0 **** 0.0
51372 H 61.7278 62.8339 55.8953 H 0.0 **** 0.0
51373 H 60.9084 60.1582 57.6143 H 0.0 **** 0.0
51374 H 61.3574 59.4217 59.9379 H 0.0 **** 0.0
51375 H 59.2032 53.5356 59.3508 H 0.0 **** 0.0
51376 H 57.6934 53.7475 62.1558 H 0.0 **** 0.0
51377 H 58.1368 54.6676 64.0316 H 0.0 **** 0.0
51378 H 60.315 52.3781 64.4615 H 0.0 **** 0.0
51379 H 57.2529 52.1039 64.5817 H 0.0 **** 0.0
51380 H 58.359 50.8612 65.0314 H 0.0 **** 0.0
51381 H 57.3465 51.244 62.4879 H 0.0 **** 0.0
51382 H 58.7251 50.2082 62.9075 H 0.0 **** 0.0
51383 H 59.05 51.9157 60.9853 H 0.0 **** 0.0
51384 H 60.2802 52.0299 62.3503 H 0.0 **** 0.0
51385 H 56.3228 53.4993 43.3479 H 0.0 **** 0.0
51386 H 58.0605 52.6478 44.788 H 0.0 **** 0.0
51387 H 56.7653 52.0834 46.0006 H 0.0 **** 0.0
51388 H 57.2035 53.7754 45.8562 H 0.0 **** 0.0
51389 H 54.9386 51.7027 42.7639 H 0.0 **** 0.0
51390 H 54.6951 51.1784 44.445 H 0.0 **** 0.0
51391 H 56.2227 50.827 43.6021 H 0.0 **** 0.0
51392 H 56.4797 52.1639 53.6601 H 0.0 **** 0.0
51393 H 62.4334 59.3763 63.9175 H 0.0 **** 0.0
51394 H 63.9848 59.4677 65.8918 H 0.0 **** 0.0
51395 H 64.7013 58.3637 68.1169 H 0.0 **** 0.0
51396 H 64.5957 58.1143 70.7513 H 0.0 **** 0.0
51397 H 63.9839 56.6342 72.6234 H 0.0 **** 0.0
51398 H 60.2842 53.4856 73.0064 H 0.0 **** 0.0
51399 H 61.9785 55.2848 73.6011 H 0.0 **** 0.0
51400 H 58.37 51.7514 67.04 H 0.0 **** 0.0
51401 H 57.6694 50.8623 68.872 H 0.0 **** 0.0
51402 H 58.9906 49.6287 69.0571 H 0.0 **** 0.0
51403 H 57.1481 49.3934 70.8305 H 0.0 **** 0.0
51404 H 57.5019 51.1686 71.2295 H 0.0 **** 0.0
51405 H 59.4797 48.8084 71.4774 H 0.0 **** 0.0
51406 H 58.5426 49.5276 72.8171 H 0.0 **** 0.0
51407 C 63.5647 -8.24998 100.027 C 0.0 **** 0.0
51408 C 63.2535 -9.1099 101.226 C 0.0 **** 0.0
51409 C 62.0772 -8.55532 102.082 C 0.0 **** 0.0
51410 C 61.9667 -6.99155 101.947 C 0.0 **** 0.0
51411 C 61.9441 -6.61497 100.436 C 0.0 **** 0.0
51412 O 62.3905 -7.64792 99.519 O 0.0 **** 0.0
51413 C 63.1101 -6.2117 102.642 C 0.0 **** 0.0
51414 C 63.7363 -6.85823 103.882 C 0.0 **** 0.0
51415 C 62.7364 -7.85693 104.519 C 0.0 **** 0.0
51416 C 62.2105 -8.96936 103.579 C 0.0 **** 0.0
51417 O 64.1172 -5.97677 104.937 O 0.0 **** 0.0
51418 C 64.798 -4.84082 104.503 C 0.0 **** 0.0
51419 C 63.857 -3.97798 103.63 C 0.0 **** 0.0
51420 C 62.7278 -4.77692 102.867 C 0.0 **** 0.0
51421 C 64.6157 -2.97788 102.759 C 0.0 **** 0.0
51422 C 66.055 -3.05633 102.499 C 0.0 **** 0.0
51423 C 66.8732 -3.81977 103.567 C 0.0 **** 0.0
51424 C 66.1722 -5.16666 103.906 C 0.0 **** 0.0
51425 C 68.3545 -4.03933 103.063 C 0.0 **** 0.0
51426 C 68.9802 -2.66216 103.088 C 0.0 **** 0.0
51427 C 68.2317 -1.70891 102.099 C 0.0 **** 0.0
51428 C 66.7002 -1.65963 102.316 C 0.0 **** 0.0
51429 C 65.9494 -0.781088 101.296 C 0.0 **** 0.0
51430 C 64.5376 -0.573949 101.832 C 0.0 **** 0.0
51431 C 63.8834 -1.83497 102.287 C 0.0 **** 0.0
51432 O 68.7382 -0.446537 102.341 O 0.0 **** 0.0
51433 C 70.0851 -0.4243 101.936 C 0.0 **** 0.0
51434 C 70.9995 -1.30767 102.851 C 0.0 **** 0.0
51435 C 70.4396 -2.70759 102.734 C 0.0 **** 0.0
51436 C 67.1204 -6.01487 104.729 C 0.0 **** 0.0
51437 C 68.3628 -6.3731 103.993 C 0.0 **** 0.0
51438 C 69.1229 -5.02902 103.975 C 0.0 **** 0.0
51439 C 69.136 -7.48381 104.663 C 0.0 **** 0.0
51440 C 68.9406 -7.78413 105.974 C 0.0 **** 0.0
51441 C 67.9352 -7.03876 106.859 C 0.0 **** 0.0
51442 C 66.9164 -6.31589 106.03 C 0.0 **** 0.0
51443 C 69.734 -8.86193 106.658 C 0.0 **** 0.0
51444 C 71.1652 -8.82225 106.134 C 0.0 **** 0.0
51445 C 71.1603 -8.8305 104.605 C 0.0 **** 0.0
51446 C 70.2033 -8.17281 103.886 C 0.0 **** 0.0
51447 C 70.0974 -8.29411 102.369 C 0.0 **** 0.0
51448 C 71.2298 -9.16169 101.737 C 0.0 **** 0.0
51449 C 72.5547 -8.9808 102.547 C 0.0 **** 0.0
51450 C 72.3603 -9.41532 103.979 C 0.0 **** 0.0
51451 C 71.2246 -3.73636 103.593 C 0.0 **** 0.0
51452 C 70.5911 -5.11618 103.48 C 0.0 **** 0.0
51453 C 72.4637 -1.15303 102.422 C 0.0 **** 0.0
51454 C 73.2508 -2.04319 103.343 C 0.0 **** 0.0
51455 S 72.8789 -3.811 102.893 S 0.0 **** 0.0
51456 C 74.7596 -1.75447 103.364 C 0.0 **** 0.0
51457 C 75.1885 -0.390451 102.858 C 0.0 **** 0.0
51458 C 74.1612 0.701358 103.149 C 0.0 **** 0.0
51459 C 72.8591 0.320743 102.46 C 0.0 **** 0.0
51460 C 74.6002 2.02966 102.482 C 0.0 **** 0.0
51461 C 76.0335 2.40988 102.902 C 0.0 **** 0.0
51462 C 77.0188 1.26062 102.54 C 0.0 **** 0.0
51463 C 76.593 -0.0355661 103.251 C 0.0 **** 0.0
51464 C 78.434 1.76203 102.829 C 0.0 **** 0.0
51465 C 78.6954 3.01974 101.925 C 0.0 **** 0.0
51466 C 77.8237 4.14027 102.373 C 0.0 **** 0.0
51467 C 76.3699 3.74172 102.159 C 0.0 **** 0.0
51468 C 71.7286 1.36147 102.781 C 0.0 **** 0.0
51469 C 70.491 1.05823 101.934 C 0.0 **** 0.0
51470 C 73.5765 3.16738 102.79 C 0.0 **** 0.0
51471 C 72.1569 2.81412 102.301 C 0.0 **** 0.0
51472 C 75.44 4.75666 102.745 C 0.0 **** 0.0
51473 C 74.0107 4.50693 102.239 C 0.0 **** 0.0
51474 C 78.1025 5.56081 101.763 C 0.0 **** 0.0
51475 C 76.8083 6.32706 101.531 C 0.0 **** 0.0
51476 C 75.9544 6.17153 102.752 C 0.0 **** 0.0
51477 O 80.0319 3.42434 101.911 O 0.0 **** 0.0
51478 C 80.7362 2.55361 101.036 C 0.0 **** 0.0
51479 C 80.4117 1.02005 101.352 C 0.0 **** 0.0
51480 C 79.7231 0.85926 102.703 C 0.0 **** 0.0
51481 C 81.7071 0.142201 101.237 C 0.0 **** 0.0
51482 C 82.5544 0.594874 100.004 C 0.0 **** 0.0
51483 C 83.0938 2.01496 100.179 C 0.0 **** 0.0
51484 C 82.2269 2.92366 101.113 C 0.0 **** 0.0
51485 C 82.4784 4.41613 100.696 C 0.0 **** 0.0
51486 C 83.9343 4.68912 100.22 C 0.0 **** 0.0
51487 C 84.3792 3.77651 99.0448 C 0.0 **** 0.0
51488 N 83.4178 2.64807 98.8771 N 0.0 **** 0.0
51489 C 71.1117 3.91547 102.71 C 0.0 **** 0.0
51490 C 71.6579 5.37519 102.971 C 0.0 **** 0.0
51491 C 73.1121 5.70024 102.628 C 0.0 **** 0.0
51492 O 70.9104 6.35657 102.218 O 0.0 **** 0.0
51493 C 69.5496 6.22613 102.485 C 0.0 **** 0.0
51494 C 69.0468 4.79193 102.215 C 0.0 **** 0.0
51495 O 70.0853 3.96433 101.726 O 0.0 **** 0.0
51496 C 67.8575 4.76411 101.249 C 0.0 **** 0.0
51497 C 66.8036 5.82547 101.501 C 0.0 **** 0.0
51498 C 67.3629 7.25849 101.662 C 0.0 **** 0.0
51499 C 68.8785 7.3023 101.615 C 0.0 **** 0.0
51500 C 74.919 7.31465 103.015 C 0.0 **** 0.0
51501 C 73.6613 6.72578 103.624 C 0.0 **** 0.0
51502 C 77.1099 7.79836 101.371 C 0.0 **** 0.0
51503 C 75.8981 8.66808 101.048 C 0.0 **** 0.0
51504 C 74.6191 8.20185 101.762 C 0.0 **** 0.0
51505 C 78.1232 8.04957 100.239 C 0.0 **** 0.0
51506 C 79.362 7.20356 100.439 C 0.0 **** 0.0
51507 C 79.0598 5.69931 100.587 C 0.0 **** 0.0
51508 O 76.2424 10.0071 101.392 O 0.0 **** 0.0
51509 C 77.1907 10.3707 100.403 C 0.0 **** 0.0
51510 C 78.469 9.49427 100.425 C 0.0 **** 0.0
51511 C 80.5694 7.54589 99.5092 C 0.0 **** 0.0
51512 C 80.7401 9.08119 99.3378 C 0.0 **** 0.0
51513 C 79.4311 9.88207 99.2867 C 0.0 **** 0.0
51514 C 81.5202 9.46666 98.0418 C 0.0 **** 0.0
51515 C 82.6737 8.45001 97.7641 C 0.0 **** 0.0
51516 C 82.1423 7.01559 97.5919 C 0.0 **** 0.0
51517 C 80.7459 6.76515 98.1783 C 0.0 **** 0.0
51518 C 79.7423 11.3823 99.2618 C 0.0 **** 0.0
51519 C 78.488 12.2338 99.3067 C 0.0 **** 0.0
51520 C 77.603 11.8415 100.532 C 0.0 **** 0.0
51521 C 81.9552 10.9649 98.084 C 0.0 **** 0.0
51522 C 80.651 11.8033 98.0937 C 0.0 **** 0.0
51523 C 71.3986 -8.83758 100.182 C 0.0 **** 0.0
51524 C 72.1428 -7.53532 99.917 C 0.0 **** 0.0
51525 C 72.1288 -9.98442 99.4602 C 0.0 **** 0.0
51526 O 79.4357 -0.488305 102.88 O 0.0 **** 0.0
51527 C 76.2804 12.6852 100.584 C 0.0 **** 0.0
51528 C 76.6414 14.1538 100.609 C 0.0 **** 0.0
51529 C 77.4556 14.5346 99.3301 C 0.0 **** 0.0
51530 C 78.7491 13.739 99.3038 C 0.0 **** 0.0
51531 C 79.6234 14.0854 98.0588 C 0.0 **** 0.0
51532 C 79.8448 15.6046 97.9491 C 0.0 **** 0.0
51533 C 78.4754 16.3275 97.8753 C 0.0 **** 0.0
51534 C 77.6956 16.0546 99.1923 C 0.0 **** 0.0
51535 C 78.6845 17.8309 97.6612 C 0.0 **** 0.0
51536 C 79.4158 18.1117 96.3634 C 0.0 **** 0.0
51537 C 80.8005 17.3713 96.444 C 0.0 **** 0.0
51538 C 80.6906 15.8557 96.7208 C 0.0 **** 0.0
51539 C 82.0319 15.1935 96.9615 C 0.0 **** 0.0
51540 C 81.8414 13.6932 96.8971 C 0.0 **** 0.0
51541 C 80.9497 13.3338 98.1069 C 0.0 **** 0.0
51542 C 82.9334 15.542 95.7576 C 0.0 **** 0.0
51543 C 83.0091 17.0297 95.4895 C 0.0 **** 0.0
51544 C 81.6342 17.5606 95.1682 C 0.0 **** 0.0
51545 C 82.9228 11.3645 96.9753 C 0.0 **** 0.0
51546 C 83.1767 12.9186 96.996 C 0.0 **** 0.0
51547 C 84.2916 14.896 95.7467 C 0.0 **** 0.0
51548 C 84.2101 13.3607 95.8828 C 0.0 **** 0.0
51549 C 85.5683 12.6913 96.1104 C 0.0 **** 0.0
51550 C 86.719 13.6472 95.7749 C 0.0 **** 0.0
51551 C 86.6644 14.8828 96.7423 C 0.0 **** 0.0
51552 C 85.2908 15.4805 96.7196 C 0.0 **** 0.0
51553 O 84.9719 16.3005 97.5721 O 0.0 **** 0.0
51554 H 64.0516 -8.89078 99.2624 H 0.0 **** 0.0
51555 H 64.3138 -7.48978 100.258 H 0.0 **** 0.0
51556 H 62.962 -10.1067 100.785 H 0.0 **** 0.0
51557 H 64.1647 -9.23825 101.857 H 0.0 **** 0.0
51558 H 61.1516 -9.03508 101.663 H 0.0 **** 0.0
51559 H 60.9654 -6.66692 102.337 H 0.0 **** 0.0
51560 H 62.4908 -5.67447 100.21 H 0.0 **** 0.0
51561 H 60.9113 -6.45826 100.168 H 0.0 **** 0.0
51562 H 63.985 -6.19544 101.998 H 0.0 **** 0.0
51563 H 64.6521 -7.53176 103.61 H 0.0 **** 0.0
51564 H 61.8997 -7.24118 104.806 H 0.0 **** 0.0
51565 H 63.1648 -8.28921 105.441 H 0.0 **** 0.0
51566 H 61.2696 -9.19454 104.034 H 0.0 **** 0.0
51567 H 62.9059 -9.80146 103.68 H 0.0 **** 0.0
51568 H 65.0238 -4.22294 105.404 H 0.0 **** 0.0
51569 H 63.2953 -3.34786 104.357 H 0.0 **** 0.0
51570 H 62.414 -4.2414 101.982 H 0.0 **** 0.0
51571 H 61.8451 -4.81395 103.54 H 0.0 **** 0.0
51572 H 65.9741 -5.60515 102.873 H 0.0 **** 0.0
51573 H 66.4236 0.242362 101.246 H 0.0 **** 0.0
51574 H 65.9675 -1.23778 100.266 H 0.0 **** 0.0
51575 H 63.9885 -0.108379 101.032 H 0.0 **** 0.0
51576 H 64.5958 0.0488127 102.772 H 0.0 **** 0.0
51577 H 62.8602 -1.74354 102.469 H 0.0 **** 0.0
51578 H 68.0725 -6.69265 102.963 H 0.0 **** 0.0
51579 H 68.4882 -6.32518 107.495 H 0.0 **** 0.0
51580 H 67.426 -7.76624 107.511 H 0.0 **** 0.0
51581 H 66.0114 -5.93305 106.534 H 0.0 **** 0.0
51582 H 69.7882 -8.63455 107.76 H 0.0 **** 0.0
51583 H 69.3412 -9.87822 106.485 H 0.0 **** 0.0
51584 H 71.685 -9.66902 106.533 H 0.0 **** 0.0
51585 H 71.7472 -7.94099 106.479 H 0.0 **** 0.0
51586 H 69.1736 -8.84887 102.14 H 0.0 **** 0.0
51587 H 70.1093 -7.29069 101.933 H 0.0 **** 0.0
51588 H 70.9605 -10.2006 101.883 H 0.0 **** 0.0
51589 H 72.7737 -7.92685 102.534 H 0.0 **** 0.0
51590 H 73.458 -9.56353 102.167 H 0.0 **** 0.0
51591 H 73.2543 -9.07934 104.554 H 0.0 **** 0.0
51592 H 72.2831 -10.4985 104.141 H 0.0 **** 0.0
51593 H 71.2188 -5.77644 104.134 H 0.0 **** 0.0
51594 H 75.1537 -2.00671 104.396 H 0.0 **** 0.0
51595 H 77.203 -0.895374 102.918 H 0.0 **** 0.0
51596 H 69.6343 1.70756 102.208 H 0.0 **** 0.0
51597 H 80.3957 2.82458 99.9878 H 0.0 **** 0.0
51598 H 79.7142 0.593376 100.592 H 0.0 **** 0.0
51599 H 80.4467 1.22728 103.466 H 0.0 **** 0.0
51600 H 82.3299 0.131477 102.142 H 0.0 **** 0.0
51601 H 81.4557 -0.894252 101.115 H 0.0 **** 0.0
51602 H 82.0032 0.455991 99.0653 H 0.0 **** 0.0
51603 H 83.4659 -0.0634302 99.9424 H 0.0 **** 0.0
51604 H 84.1021 1.91872 100.733 H 0.0 **** 0.0
51605 H 82.5509 2.79419 102.143 H 0.0 **** 0.0
51606 H 81.7539 4.69463 99.892 H 0.0 **** 0.0
51607 H 82.3203 5.11398 101.489 H 0.0 **** 0.0
51608 H 84.6312 4.49609 101.086 H 0.0 **** 0.0
51609 H 84.0497 5.76831 99.9272 H 0.0 **** 0.0
51610 H 85.382 3.37333 99.2913 H 0.0 **** 0.0
51611 H 84.4962 4.33939 98.0806 H 0.0 **** 0.0
51612 H 82.5475 3.00717 98.4427 H 0.0 **** 0.0
51613 H 69.3251 6.55062 103.519 H 0.0 **** 0.0
51614 H 68.7255 4.3579 103.167 H 0.0 **** 0.0
51615 H 68.2234 4.94653 100.207 H 0.0 **** 0.0
51616 H 67.4236 3.75752 101.284 H 0.0 **** 0.0
51617 H 66.2788 5.58103 102.461 H 0.0 **** 0.0
51618 H 66.1108 5.86453 100.653 H 0.0 **** 0.0
51619 H 67.0927 7.66642 102.657 H 0.0 **** 0.0
51620 H 66.9487 7.95653 100.88 H 0.0 **** 0.0
51621 H 69.1737 8.29536 101.955 H 0.0 **** 0.0
51622 H 69.2461 7.23419 100.586 H 0.0 **** 0.0
51623 H 72.9568 7.61056 103.764 H 0.0 **** 0.0
51624 H 73.9786 9.08676 102.025 H 0.0 **** 0.0
51625 H 78.6525 5.2819 99.6555 H 0.0 **** 0.0
51626 H 81.4167 7.22483 100.18 H 0.0 **** 0.0
51627 H 81.3664 9.45474 100.209 H 0.0 **** 0.0
51628 H 80.8135 9.31993 97.1798 H 0.0 **** 0.0
51629 H 83.4303 8.45172 98.5801 H 0.0 **** 0.0
51630 H 83.183 8.73523 96.8107 H 0.0 **** 0.0
51631 H 82.872 6.32703 98.11 H 0.0 **** 0.0
51632 H 82.1689 6.72315 96.5341 H 0.0 **** 0.0
51633 H 80.5746 5.71653 98.3155 H 0.0 **** 0.0
51634 H 79.9939 7.05836 97.4572 H 0.0 **** 0.0
51635 H 70.3961 -8.73033 99.7749 H 0.0 **** 0.0
51636 H 72.1372 -7.2587 98.8151 H 0.0 **** 0.0
51637 H 73.1914 -7.51663 100.257 H 0.0 **** 0.0
51638 H 71.666 -6.64018 100.387 H 0.0 **** 0.0
51639 H 71.85 -10.9384 99.9235 H 0.0 **** 0.0
51640 H 73.2625 -9.85307 99.5021 H 0.0 **** 0.0
51641 H 71.7237 -10.0849 98.4137 H 0.0 **** 0.0
51642 H 80.0724 -0.822957 103.541 H 0.0 **** 0.0
51643 H 75.6062 12.4507 99.7115 H 0.0 **** 0.0
51644 H 75.7282 14.7404 100.642 H 0.0 **** 0.0
51645 H 76.7353 16.6407 99.2687 H 0.0 **** 0.0
51646 H 77.7166 18.3655 97.657 H 0.0 **** 0.0
51647 H 78.7673 17.6983 95.5007 H 0.0 **** 0.0
51648 H 83.6476 17.1838 94.6509 H 0.0 **** 0.0
51649 H 81.2655 17.0506 94.2661 H 0.0 **** 0.0
51650 H 83.8929 10.8295 97.0765 H 0.0 **** 0.0
51651 H 85.6741 12.3172 97.1451 H 0.0 **** 0.0
51652 H 85.5767 11.839 95.4437 H 0.0 **** 0.0
51653 H 86.66 13.9471 94.7181 H 0.0 **** 0.0
51654 H 87.7125 13.1462 95.9455 H 0.0 **** 0.0
51655 H 87.3585 15.7223 96.4364 H 0.0 **** 0.0
51656 H 86.9236 14.5155 97.7991 H 0.0 **** 0.0
51657 C 86.2014 44.4384 6.50202 C 0.0 **** 0.0
51658 C 86.5342 43.0945 7.18056 C 0.0 **** 0.0
51659 C 86.9224 42.0034 6.15507 C 0.0 **** 0.0
51660 C 86.1448 42.1616 4.88506 C 0.0 **** 0.0
51661 C 86.3816 43.5963 4.3305 C 0.0 **** 0.0
51662 O 86.8986 44.5094 5.27868 O 0.0 **** 0.0
51663 C 84.5848 41.9159 5.1313 C 0.0 **** 0.0
51664 C 84.2821 40.7593 6.11604 C 0.0 **** 0.0
51665 C 85.4722 39.8544 6.29302 C 0.0 **** 0.0
51666 C 86.7929 40.5713 6.68646 C 0.0 **** 0.0
51667 O 83.1176 39.953 5.73907 O 0.0 **** 0.0
51668 C 82.0258 40.7678 5.29852 C 0.0 **** 0.0
51669 C 82.3683 41.4642 3.95182 C 0.0 **** 0.0
51670 C 83.9029 41.6067 3.78971 C 0.0 **** 0.0
51671 C 81.6625 42.7835 3.67169 C 0.0 **** 0.0
51672 C 80.98 43.4894 4.74488 C 0.0 **** 0.0
51673 C 80.3459 42.565 5.86262 C 0.0 **** 0.0
51674 C 81.4424 41.6678 6.41046 C 0.0 **** 0.0
51675 C 79.7823 43.4825 6.99734 C 0.0 **** 0.0
51676 C 78.761 44.3583 6.42683 C 0.0 **** 0.0
51677 C 79.4567 45.3204 5.45324 C 0.0 **** 0.0
51678 C 80.0075 44.5654 4.23419 C 0.0 **** 0.0
51679 C 80.7185 45.5474 3.3283 C 0.0 **** 0.0
51680 C 81.2657 44.7641 2.10561 C 0.0 **** 0.0
51681 C 81.855 43.4282 2.4333 C 0.0 **** 0.0
51682 O 78.6697 46.4216 5.09417 O 0.0 **** 0.0
51683 C 77.2898 46.2446 5.38523 C 0.0 **** 0.0
51684 C 77.1189 46.2432 6.8785 C 0.0 **** 0.0
51685 C 77.9975 45.1472 7.48903 C 0.0 **** 0.0
51686 C 80.9857 41.04 7.71632 C 0.0 **** 0.0
51687 C 80.4586 41.9338 8.84165 C 0.0 **** 0.0
51688 C 79.2223 42.5751 8.16286 C 0.0 **** 0.0
51689 C 80.1017 41.1688 10.1515 C 0.0 **** 0.0
51690 C 79.9408 39.835 10.1209 C 0.0 **** 0.0
51691 C 80.4618 38.9709 9.01428 C 0.0 **** 0.0
51692 C 80.9655 39.709 7.83807 C 0.0 **** 0.0
51693 C 79.3256 39.1208 11.2479 C 0.0 **** 0.0
51694 C 78.2593 40.0006 11.8949 C 0.0 **** 0.0
51695 C 78.8476 41.3619 12.2853 C 0.0 **** 0.0
51696 C 79.7785 41.8997 11.4662 C 0.0 **** 0.0
51697 C 80.5468 43.1461 11.9021 C 0.0 **** 0.0
51698 C 80.3918 43.458 13.4438 C 0.0 **** 0.0
51699 C 78.8794 43.4252 13.7553 C 0.0 **** 0.0
51700 C 78.3668 41.9714 13.5649 C 0.0 **** 0.0
51701 C 77.2791 44.2086 8.44752 C 0.0 **** 0.0
51702 C 78.2775 43.2997 9.13344 C 0.0 **** 0.0
51703 C 75.6208 46.0959 7.23127 C 0.0 **** 0.0
51704 C 75.3168 46.1719 8.72031 C 0.0 **** 0.0
51705 S 76.2588 45.0421 9.7518 S 0.0 **** 0.0
51706 C 73.8176 45.9098 8.94775 C 0.0 **** 0.0
51707 C 72.9873 46.981 8.30481 C 0.0 **** 0.0
51708 C 73.2976 47.08 6.82643 C 0.0 **** 0.0
51709 C 74.8129 47.2052 6.5564 C 0.0 **** 0.0
51710 C 72.6803 48.4397 6.40921 C 0.0 **** 0.0
51711 C 71.1529 48.456 6.66116 C 0.0 **** 0.0
51712 C 70.8647 48.1172 8.15105 C 0.0 **** 0.0
51713 C 71.4861 46.7534 8.45738 C 0.0 **** 0.0
51714 C 69.3287 48.1819 8.38264 C 0.0 **** 0.0
51715 C 68.5507 49.3661 7.85797 C 0.0 **** 0.0
51716 C 68.9704 49.8641 6.44602 C 0.0 **** 0.0
51717 C 70.4959 49.822 6.28419 C 0.0 **** 0.0
51718 C 75.0248 47.15 5.05186 C 0.0 **** 0.0
51719 C 76.497 47.3746 4.74573 C 0.0 **** 0.0
51720 C 73.1188 48.9067 4.99367 C 0.0 **** 0.0
51721 C 73.9839 47.9209 4.21364 C 0.0 **** 0.0
51722 C 71.0684 50.3949 4.97934 C 0.0 **** 0.0
51723 C 71.9301 49.4298 4.1163 C 0.0 **** 0.0
51724 C 68.6395 51.323 6.19626 C 0.0 **** 0.0
51725 C 68.8187 51.6556 4.73788 C 0.0 **** 0.0
51726 C 70.0327 51.0175 4.0432 C 0.0 **** 0.0
51727 O 67.1629 49.0554 7.92313 O 0.0 **** 0.0
51728 C 66.7054 49.1921 9.26109 C 0.0 **** 0.0
51729 C 67.8058 48.9632 10.3769 C 0.0 **** 0.0
51730 C 68.8807 47.9 9.83703 C 0.0 **** 0.0
51731 C 67.1532 48.4615 11.716 C 0.0 **** 0.0
51732 C 65.7349 49.0341 11.9211 C 0.0 **** 0.0
51733 C 64.8361 48.4601 10.8114 C 0.0 **** 0.0
51734 C 65.5577 48.1788 9.46825 C 0.0 **** 0.0
51735 C 64.5438 48.1841 8.30155 C 0.0 **** 0.0
51736 C 63.1718 47.6658 8.7816 C 0.0 **** 0.0
51737 C 62.5845 48.6408 9.81288 C 0.0 **** 0.0
51738 N 63.6399 49.3274 10.607 N 0.0 **** 0.0
51739 C 74.4468 48.3654 2.84185 C 0.0 **** 0.0
51740 C 73.34 49.1304 2.07245 C 0.0 **** 0.0
51741 C 72.6074 50.1848 2.92029 C 0.0 **** 0.0
51742 O 73.9449 49.6994 0.93577 O 0.0 **** 0.0
51743 C 74.5411 48.738 0.0488036 C 0.0 **** 0.0
51744 C 75.261 47.5486 0.798923 C 0.0 **** 0.0
51745 O 74.737 47.1925 2.07421 O 0.0 **** 0.0
51746 C 76.7711 47.6238 0.730772 C 0.0 **** 0.0
51747 C 77.3115 49.0498 0.877355 C 0.0 **** 0.0
51748 C 76.7673 49.961 -0.247038 C 0.0 **** 0.0
51749 C 75.4783 49.4333 -0.90904 C 0.0 **** 0.0
51750 C 70.7743 51.8862 3.05853 C 0.0 **** 0.0
51751 C 71.5313 50.9317 2.11412 C 0.0 **** 0.0
51752 C 68.7531 53.1571 4.61539 C 0.0 **** 0.0
51753 C 69.1331 53.7068 3.17314 C 0.0 **** 0.0
51754 C 69.8268 52.7401 2.27073 C 0.0 **** 0.0
51755 C 67.3003 53.5711 4.9358 C 0.0 **** 0.0
51756 C 66.885 53.2872 6.41942 C 0.0 **** 0.0
51757 C 67.2898 51.8748 6.80947 C 0.0 **** 0.0
51758 O 68.0917 54.379 2.54151 O 0.0 **** 0.0
51759 C 67.8127 55.4821 3.39582 C 0.0 **** 0.0
51760 C 67.0444 55.055 4.68862 C 0.0 **** 0.0
51761 C 65.3109 53.4463 6.46385 C 0.0 **** 0.0
51762 C 64.8029 54.7934 5.85484 C 0.0 **** 0.0
51763 C 65.5193 55.0963 4.54056 C 0.0 **** 0.0
51764 C 64.8255 55.9765 6.80455 C 0.0 **** 0.0
51765 C 63.7454 55.6694 7.9119 C 0.0 **** 0.0
51766 C 63.6008 54.1546 8.32383 C 0.0 **** 0.0
51767 C 64.8207 53.3193 7.94978 C 0.0 **** 0.0
51768 C 65.0138 56.4083 3.88104 C 0.0 **** 0.0
51769 C 65.6606 56.631 2.52964 C 0.0 **** 0.0
51770 C 67.1912 56.7208 2.68627 C 0.0 **** 0.0
51771 C 64.4086 57.3372 6.12204 C 0.0 **** 0.0
51772 C 65.2348 57.6278 4.83382 C 0.0 **** 0.0
51773 C 81.091 44.7835 13.9099 C 0.0 **** 0.0
51774 C 80.4123 46.0572 13.3885 C 0.0 **** 0.0
51775 C 81.1907 44.8472 15.4499 C 0.0 **** 0.0
51776 O 69.9784 47.9122 10.687 O 0.0 **** 0.0
51777 C 67.8807 56.9408 1.33303 C 0.0 **** 0.0
51778 C 67.2982 58.1886 0.659654 C 0.0 **** 0.0
51779 C 65.7413 58.142 0.498658 C 0.0 **** 0.0
51780 C 65.1042 57.945 1.86613 C 0.0 **** 0.0
51781 C 65.3278 59.1804 2.78192 C 0.0 **** 0.0
51782 C 64.8307 60.4642 2.12683 C 0.0 **** 0.0
51783 C 65.4605 60.6994 0.7236 C 0.0 **** 0.0
51784 C 65.2402 59.4538 -0.162089 C 0.0 **** 0.0
51785 C 64.9538 62.0298 0.139599 C 0.0 **** 0.0
51786 C 65.1295 63.2361 1.11587 C 0.0 **** 0.0
51787 C 64.3709 62.9446 2.41609 C 0.0 **** 0.0
51788 C 64.8829 61.6591 3.05532 C 0.0 **** 0.0
51789 C 64.0687 61.3288 4.34305 C 0.0 **** 0.0
51790 C 64.7213 60.094 5.00687 C 0.0 **** 0.0
51791 C 64.5943 58.8651 4.12187 C 0.0 **** 0.0
51792 C 63.9354 62.4659 5.36209 C 0.0 **** 0.0
51793 C 63.5401 63.7568 4.6427 C 0.0 **** 0.0
51794 C 64.4302 64.0782 3.45057 C 0.0 **** 0.0
51795 C 64.608 58.4795 7.08508 C 0.0 **** 0.0
51796 C 64.3627 59.8388 6.49006 C 0.0 **** 0.0
51797 C 63.038 62.0416 6.60353 C 0.0 **** 0.0
51798 C 63.05 60.5118 6.89372 C 0.0 **** 0.0
51799 C 61.8416 59.6558 6.43834 C 0.0 **** 0.0
51800 C 60.7337 60.4829 5.79658 C 0.0 **** 0.0
51801 C 60.402 61.708 6.63927 C 0.0 **** 0.0
51802 C 61.6021 62.64 6.59766 C 0.0 **** 0.0
51803 O 61.411 63.8633 6.5058 O 0.0 **** 0.0
51804 H 86.6168 45.2464 7.14374 H 0.0 **** 0.0
51805 H 85.1127 44.6357 6.3329 H 0.0 **** 0.0
51806 H 87.3954 43.1764 7.88069 H 0.0 **** 0.0
51807 H 85.6943 42.7972 7.83458 H 0.0 **** 0.0
51808 H 87.9897 42.2101 5.88935 H 0.0 **** 0.0
51809 H 86.5396 41.4284 4.14904 H 0.0 **** 0.0
51810 H 85.4225 44.0107 3.93066 H 0.0 **** 0.0
51811 H 87.0956 43.5652 3.45147 H 0.0 **** 0.0
51812 H 84.1009 42.7981 5.55401 H 0.0 **** 0.0
51813 H 84.1186 41.1679 7.15721 H 0.0 **** 0.0
51814 H 85.5642 39.2149 5.4018 H 0.0 **** 0.0
51815 H 85.2092 39.1184 7.10249 H 0.0 **** 0.0
51816 H 87.6624 40.0082 6.30993 H 0.0 **** 0.0
51817 H 86.9021 40.5998 7.83155 H 0.0 **** 0.0
51818 H 81.2045 40.0577 4.97816 H 0.0 **** 0.0
51819 H 82.1277 40.7585 3.14289 H 0.0 **** 0.0
51820 H 84.1182 42.4023 3.02815 H 0.0 **** 0.0
51821 H 84.2784 40.6694 3.35283 H 0.0 **** 0.0
51822 H 82.2033 42.413 6.74415 H 0.0 **** 0.0
51823 H 79.9343 46.2587 2.98283 H 0.0 **** 0.0
51824 H 81.5375 46.0714 3.84759 H 0.0 **** 0.0
51825 H 82.0035 45.3608 1.57108 H 0.0 **** 0.0
51826 H 80.3974 44.6585 1.44593 H 0.0 **** 0.0
51827 H 82.2542 42.8929 1.60226 H 0.0 **** 0.0
51828 H 81.1065 42.7263 9.06857 H 0.0 **** 0.0
51829 H 79.6622 38.3035 8.68654 H 0.0 **** 0.0
51830 H 81.2611 38.3224 9.37333 H 0.0 **** 0.0
51831 H 81.2625 39.0914 7.02235 H 0.0 **** 0.0
51832 H 78.7498 38.2206 10.85 H 0.0 **** 0.0
51833 H 80.085 38.8312 11.9543 H 0.0 **** 0.0
51834 H 77.7874 39.4631 12.7838 H 0.0 **** 0.0
51835 H 77.4387 40.1824 11.1709 H 0.0 **** 0.0
51836 H 81.6386 42.9631 11.7732 H 0.0 **** 0.0
51837 H 80.358 44.068 11.2709 H 0.0 **** 0.0
51838 H 80.8831 42.6258 14.0308 H 0.0 **** 0.0
51839 H 78.3307 44.1146 13.1081 H 0.0 **** 0.0
51840 H 78.6664 43.7768 14.7807 H 0.0 **** 0.0
51841 H 77.2392 42.0657 13.4839 H 0.0 **** 0.0
51842 H 78.6398 41.3769 14.485 H 0.0 **** 0.0
51843 H 77.6749 42.628 9.81213 H 0.0 **** 0.0
51844 H 73.5774 45.9191 10.0699 H 0.0 **** 0.0
51845 H 71.2853 46.3737 9.46106 H 0.0 **** 0.0
51846 H 76.7509 47.4449 3.65633 H 0.0 **** 0.0
51847 H 66.314 50.2182 9.35148 H 0.0 **** 0.0
51848 H 68.2517 49.935 10.5982 H 0.0 **** 0.0
51849 H 68.4312 46.8911 9.93744 H 0.0 **** 0.0
51850 H 67.0949 47.3414 11.7265 H 0.0 **** 0.0
51851 H 67.8127 48.7857 12.5531 H 0.0 **** 0.0
51852 H 65.8362 50.1925 11.8781 H 0.0 **** 0.0
51853 H 65.3962 48.7679 12.9463 H 0.0 **** 0.0
51854 H 64.4836 47.4672 11.1279 H 0.0 **** 0.0
51855 H 65.9628 47.1244 9.4603 H 0.0 **** 0.0
51856 H 64.4203 49.2355 7.94552 H 0.0 **** 0.0
51857 H 64.9223 47.5499 7.48412 H 0.0 **** 0.0
51858 H 63.2457 46.5991 9.14357 H 0.0 **** 0.0
51859 H 62.5678 47.5734 7.88197 H 0.0 **** 0.0
51860 H 62.005 48.0581 10.4987 H 0.0 **** 0.0
51861 H 61.951 49.3893 9.30546 H 0.0 **** 0.0
51862 H 63.9159 50.2032 10.0907 H 0.0 **** 0.0
51863 H 73.6841 48.3029 -0.550096 H 0.0 **** 0.0
51864 H 74.996 46.6594 0.205036 H 0.0 **** 0.0
51865 H 77.1222 46.9642 1.55109 H 0.0 **** 0.0
51866 H 77.2357 47.1426 -0.216999 H 0.0 **** 0.0
51867 H 78.4359 48.9949 0.86501 H 0.0 **** 0.0
51868 H 76.9822 49.4116 1.84981 H 0.0 **** 0.0
51869 H 77.5942 50.0788 -1.0255 H 0.0 **** 0.0
51870 H 76.5494 51.0034 0.114356 H 0.0 **** 0.0
51871 H 75.7258 48.6794 -1.68877 H 0.0 **** 0.0
51872 H 74.8985 50.2255 -1.37225 H 0.0 **** 0.0
51873 H 71.9994 51.5619 1.33286 H 0.0 **** 0.0
51874 H 69.1024 52.1496 1.7226 H 0.0 **** 0.0
51875 H 67.4549 51.8975 7.95935 H 0.0 **** 0.0
51876 H 64.8186 52.634 5.87745 H 0.0 **** 0.0
51877 H 63.7168 54.6398 5.58955 H 0.0 **** 0.0
51878 H 65.8389 56.0194 7.26251 H 0.0 **** 0.0
51879 H 62.7575 56.0287 7.52019 H 0.0 **** 0.0
51880 H 64.1063 56.2074 8.78792 H 0.0 **** 0.0
51881 H 62.7414 53.7102 7.88272 H 0.0 **** 0.0
51882 H 63.5145 54.0885 9.43499 H 0.0 **** 0.0
51883 H 64.6181 52.232 8.18473 H 0.0 **** 0.0
51884 H 65.6111 53.653 8.66138 H 0.0 **** 0.0
51885 H 82.1026 44.7389 13.4857 H 0.0 **** 0.0
51886 H 81.1072 46.9102 13.5172 H 0.0 **** 0.0
51887 H 79.5212 46.2322 14.0015 H 0.0 **** 0.0
51888 H 80.1051 45.963 12.3239 H 0.0 **** 0.0
51889 H 81.6894 43.9298 15.8349 H 0.0 **** 0.0
51890 H 80.2185 45.0873 15.9268 H 0.0 **** 0.0
51891 H 81.911 45.7039 15.7275 H 0.0 **** 0.0
51892 H 69.7208 47.4689 11.5573 H 0.0 **** 0.0
51893 H 67.8655 56.0448 0.658259 H 0.0 **** 0.0
51894 H 67.6235 59.0442 1.28009 H 0.0 **** 0.0
51895 H 65.8277 59.5244 -1.10054 H 0.0 **** 0.0
51896 H 65.4756 62.2406 -0.859656 H 0.0 **** 0.0
51897 H 64.6356 64.0843 0.57804 H 0.0 **** 0.0
51898 H 63.5423 64.6155 5.29561 H 0.0 **** 0.0
51899 H 64.0383 65.0469 3.10303 H 0.0 **** 0.0
51900 H 64.0747 58.3442 8.07499 H 0.0 **** 0.0
51901 H 62.1388 58.9411 5.62196 H 0.0 **** 0.0
51902 H 61.3698 59.0272 7.20837 H 0.0 **** 0.0
51903 H 59.8643 59.816 5.65971 H 0.0 **** 0.0
51904 H 61.0285 60.8384 4.78555 H 0.0 **** 0.0
51905 H 60.1957 61.3731 7.67628 H 0.0 **** 0.0
51906 H 59.5552 62.2614 6.19491 H 0.0 **** 0.0
51907 C 67.5708 2.50058 20.6815 C 0.0 **** 0.0
51908 C 68.4342 2.07668 21.9375 C 0.0 **** 0.0
51909 C 67.8902 0.765 22.5058 C 0.0 **** 0.0
51910 C 66.3083 0.829203 22.578 C 0.0 **** 0.0
51911 C 65.7017 1.207 21.1866 C 0.0 **** 0.0
51912 O 66.7311 1.44535 20.232 O 0.0 **** 0.0
51913 C 65.7511 1.7107 23.7132 C 0.0 **** 0.0
51914 C 66.8099 1.86354 24.8661 C 0.0 **** 0.0
51915 C 67.6659 0.618478 25.0933 C 0.0 **** 0.0
51916 C 68.5615 0.355453 23.8502 C 0.0 **** 0.0
51917 O 66.3903 2.34535 26.1201 O 0.0 **** 0.0
51918 C 65.0087 2.18239 26.407 C 0.0 **** 0.0
51919 C 64.3289 1.01344 25.6602 C 0.0 **** 0.0
51920 C 64.3856 1.20046 24.1445 C 0.0 **** 0.0
51921 C 62.9514 0.862306 26.1118 C 0.0 **** 0.0
51922 C 62.09 2.05175 26.1697 C 0.0 **** 0.0
51923 C 62.8324 3.36852 26.6132 C 0.0 **** 0.0
51924 C 64.3091 3.51718 26.1545 C 0.0 **** 0.0
51925 C 61.9959 4.5728 26.229 C 0.0 **** 0.0
51926 C 60.4637 4.3717 26.327 C 0.0 **** 0.0
51927 C 59.971 3.09892 27.0379 C 0.0 **** 0.0
51928 C 60.9634 1.88826 27.1995 C 0.0 **** 0.0
51929 C 60.144 0.635706 26.9433 C 0.0 **** 0.0
51930 C 60.975 -0.640319 26.7789 C 0.0 **** 0.0
51931 C 62.4127 -0.457981 26.2998 C 0.0 **** 0.0
51932 O 59.1803 3.35996 28.1773 O 0.0 **** 0.0
51933 C 57.9778 3.8397 27.609 C 0.0 **** 0.0
51934 C 58.1821 5.2688 27.0008 C 0.0 **** 0.0
51935 C 59.6703 5.63002 26.7728 C 0.0 **** 0.0
51936 C 64.7983 4.72682 26.9056 C 0.0 **** 0.0
51937 C 64.0878 6.05365 26.6834 C 0.0 **** 0.0
51938 C 62.5335 5.83372 26.8306 C 0.0 **** 0.0
51939 C 64.6451 7.23235 27.4688 C 0.0 **** 0.0
51940 C 65.2942 7.0187 28.6312 C 0.0 **** 0.0
51941 C 65.7228 5.6664 29.0408 C 0.0 **** 0.0
51942 C 65.5445 4.56682 28.0462 C 0.0 **** 0.0
51943 C 65.7667 8.20296 29.4541 C 0.0 **** 0.0
51944 C 64.6969 9.32118 29.4467 C 0.0 **** 0.0
51945 C 64.2627 9.59243 28.0433 C 0.0 **** 0.0
51946 C 64.2416 8.60988 27.1052 C 0.0 **** 0.0
51947 C 63.7847 8.85836 25.7117 C 0.0 **** 0.0
51948 C 63.6511 10.3441 25.3792 C 0.0 **** 0.0
51949 C 62.8171 11.0012 26.5019 C 0.0 **** 0.0
51950 C 63.628 10.9384 27.8003 C 0.0 **** 0.0
51951 C 60.3536 6.51175 27.8375 C 0.0 **** 0.0
51952 C 61.7972 6.17657 28.1829 C 0.0 **** 0.0
51953 C 57.2388 6.3966 27.5215 C 0.0 **** 0.0
51954 C 57.911 7.28425 28.6082 C 0.0 **** 0.0
51955 S 59.3839 6.54321 29.3866 S 0.0 **** 0.0
51956 C 56.9657 7.85055 29.6705 C 0.0 **** 0.0
51957 C 55.5501 7.97035 29.206 C 0.0 **** 0.0
51958 C 55.1019 6.51678 29.0687 C 0.0 **** 0.0
51959 C 55.7986 5.85215 27.8274 C 0.0 **** 0.0
51960 C 53.5816 6.3392 28.8802 C 0.0 **** 0.0
51961 C 52.7049 7.24366 29.6843 C 0.0 **** 0.0
51962 C 53.2753 8.64034 29.5483 C 0.0 **** 0.0
51963 C 54.6636 8.64748 30.1799 C 0.0 **** 0.0
51964 C 52.3758 9.68766 30.1858 C 0.0 **** 0.0
51965 C 50.8634 9.50631 29.845 C 0.0 **** 0.0
51966 C 50.3043 8.05112 29.9323 C 0.0 **** 0.0
51967 C 51.2842 7.13144 29.1178 C 0.0 **** 0.0
51968 C 55.573 4.34035 27.9199 C 0.0 **** 0.0
51969 C 56.7771 3.71046 28.5178 C 0.0 **** 0.0
51970 C 53.1921 4.90702 29.0335 C 0.0 **** 0.0
51971 C 54.2472 3.86114 28.5646 C 0.0 **** 0.0
51972 C 50.824 5.67222 29.2063 C 0.0 **** 0.0
51973 C 51.789 4.72102 28.4934 C 0.0 **** 0.0
51974 C 48.8889 7.93945 29.3337 C 0.0 **** 0.0
51975 C 48.4034 6.53283 29.047 C 0.0 **** 0.0
51976 C 49.4762 5.58227 28.4561 C 0.0 **** 0.0
51977 O 50.1688 10.421 30.6131 O 0.0 **** 0.0
51978 C 50.2722 11.7609 30.0769 C 0.0 **** 0.0
51979 C 51.66 12.0536 29.3902 C 0.0 **** 0.0
51980 C 52.7944 11.1517 29.8972 C 0.0 **** 0.0
51981 C 52.1257 13.5447 29.4032 C 0.0 **** 0.0
51982 C 50.9335 14.4884 29.5972 C 0.0 **** 0.0
51983 C 50.3264 14.2386 31.0151 C 0.0 **** 0.0
51984 C 49.9815 12.7316 31.2864 C 0.0 **** 0.0
51985 C 48.5471 12.6244 31.8664 C 0.0 **** 0.0
51986 C 48.3271 13.611 33.0106 C 0.0 **** 0.0
51987 C 48.7531 15.0447 32.6516 C 0.0 **** 0.0
51988 N 49.184 15.1274 31.2567 N 0.0 **** 0.0
51989 C 53.6598 2.63985 27.7474 C 0.0 **** 0.0
51990 C 52.3072 2.16212 28.3011 C 0.0 **** 0.0
51991 C 51.3076 3.31451 28.6061 C 0.0 **** 0.0
51992 O 51.7453 1.20871 27.4346 O 0.0 **** 0.0
51993 C 52.6004 0.0531165 27.3679 C 0.0 **** 0.0
51994 C 54.0222 0.490233 26.9569 C 0.0 **** 0.0
51995 O 54.5332 1.57758 27.731 O 0.0 **** 0.0
51996 C 54.2243 0.70299 25.4344 C 0.0 **** 0.0
51997 C 52.8711 0.902673 24.7119 C 0.0 **** 0.0
51998 C 51.9873 -0.322495 24.9182 C 0.0 **** 0.0
51999 C 52.0318 -0.927932 26.3441 C 0.0 **** 0.0
52000 C 48.9613 4.12561 28.3404 C 0.0 **** 0.0
52001 C 49.9816 3.17055 27.8319 C 0.0 **** 0.0
52002 C 47.677 5.96305 30.2488 C 0.0 **** 0.0
52003 C 47.287 4.47969 30.1725 C 0.0 **** 0.0
52004 C 48.393 3.60792 29.6528 C 0.0 **** 0.0
52005 C 46.4282 6.81206 30.6641 C 0.0 **** 0.0
52006 C 46.4153 8.24239 30.1067 C 0.0 **** 0.0
52007 C 47.8641 8.85707 30.0576 C 0.0 **** 0.0
52008 O 46.0449 4.18735 29.5853 O 0.0 **** 0.0
52009 C 45.135 4.6509 30.5706 C 0.0 **** 0.0
52010 C 45.0428 6.16187 30.3134 C 0.0 **** 0.0
52011 C 45.4012 9.15751 30.8232 C 0.0 **** 0.0
52012 C 44.0565 8.38296 31.3061 C 0.0 **** 0.0
52013 C 43.9791 6.80651 31.1793 C 0.0 **** 0.0
52014 C 42.7394 9.00339 30.7702 C 0.0 **** 0.0
52015 C 42.7765 10.5433 30.9971 C 0.0 **** 0.0
52016 C 44.0139 11.2848 30.5732 C 0.0 **** 0.0
52017 C 45.0541 10.3402 29.9126 C 0.0 **** 0.0
52018 C 42.6215 6.19853 30.7525 C 0.0 **** 0.0
52019 C 42.6565 4.69955 31.0419 C 0.0 **** 0.0
52020 C 43.8222 3.94964 30.3577 C 0.0 **** 0.0
52021 C 41.5274 8.36265 31.5265 C 0.0 **** 0.0
52022 C 41.452 6.85822 31.4094 C 0.0 **** 0.0
52023 C 63.0758 10.5534 23.9649 C 0.0 **** 0.0
52024 C 62.5908 11.9753 23.6726 C 0.0 **** 0.0
52025 C 64.1488 10.1944 22.9405 C 0.0 **** 0.0
52026 O 53.7937 11.2578 28.9337 O 0.0 **** 0.0
52027 C 43.8604 2.43478 30.7389 C 0.0 **** 0.0
52028 C 42.6331 1.92096 31.408 C 0.0 **** 0.0
52029 C 41.3095 2.49025 30.8581 C 0.0 **** 0.0
52030 C 41.3438 4.03952 30.6331 C 0.0 **** 0.0
52031 C 40.0786 4.74295 31.1741 C 0.0 **** 0.0
52032 C 38.8254 4.02809 30.5906 C 0.0 **** 0.0
52033 C 38.6809 2.57558 31.2341 C 0.0 **** 0.0
52034 C 40.0703 1.97222 31.6317 C 0.0 **** 0.0
52035 C 37.8199 2.67011 32.488 C 0.0 **** 0.0
52036 C 36.3801 3.12057 32.2495 C 0.0 **** 0.0
52037 C 36.2636 3.96445 30.9639 C 0.0 **** 0.0
52038 C 37.4975 4.88602 30.6228 C 0.0 **** 0.0
52039 C 37.618 6.17491 31.4572 C 0.0 **** 0.0
52040 C 38.8133 7.0229 30.9927 C 0.0 **** 0.0
52041 C 40.1319 6.21383 30.8341 C 0.0 **** 0.0
52042 C 36.3225 6.96273 31.3222 C 0.0 **** 0.0
52043 C 35.1622 6.09024 31.8524 C 0.0 **** 0.0
52044 C 34.9648 4.80784 31.0157 C 0.0 **** 0.0
52045 C 40.1887 9.03018 31.3305 C 0.0 **** 0.0
52046 C 39.0256 8.20746 31.8908 C 0.0 **** 0.0
52047 C 36.4265 8.25783 32.098 C 0.0 **** 0.0
52048 C 37.7163 9.08452 31.8459 C 0.0 **** 0.0
52049 C 37.7527 10.3441 32.8109 C 0.0 **** 0.0
52050 C 36.4707 10.4632 33.7224 C 0.0 **** 0.0
52051 C 35.2415 10.4184 32.8752 C 0.0 **** 0.0
52052 C 35.236 9.21616 31.972 C 0.0 **** 0.0
52053 O 34.3709 9.08683 31.1113 O 0.0 **** 0.0
52054 H 68.2786 2.80036 19.9069 H 0.0 **** 0.0
52055 H 66.9859 3.4079 20.9749 H 0.0 **** 0.0
52056 H 69.5026 1.90138 21.5501 H 0.0 **** 0.0
52057 H 68.5336 2.91121 22.6946 H 0.0 **** 0.0
52058 H 68.1193 -0.0292368 21.7738 H 0.0 **** 0.0
52059 H 66.0752 -0.251474 22.7773 H 0.0 **** 0.0
52060 H 65.0617 2.09213 21.236 H 0.0 **** 0.0
52061 H 65.0233 0.43211 20.7801 H 0.0 **** 0.0
52062 H 65.5667 2.73878 23.3301 H 0.0 **** 0.0
52063 H 67.4949 2.67931 24.5079 H 0.0 **** 0.0
52064 H 67.0083 -0.256918 25.2373 H 0.0 **** 0.0
52065 H 68.2822 0.70216 25.9891 H 0.0 **** 0.0
52066 H 68.7039 -0.789812 23.7555 H 0.0 **** 0.0
52067 H 69.5542 0.899557 23.9307 H 0.0 **** 0.0
52068 H 64.895 1.99231 27.4412 H 0.0 **** 0.0
52069 H 64.9213 0.121117 25.9386 H 0.0 **** 0.0
52070 H 63.592 1.8657 23.8279 H 0.0 **** 0.0
52071 H 64.1132 0.247195 23.6676 H 0.0 **** 0.0
52072 H 64.4157 3.69639 25.0512 H 0.0 **** 0.0
52073 H 59.4727 0.497395 27.8382 H 0.0 **** 0.0
52074 H 59.5587 0.826847 26.0025 H 0.0 **** 0.0
52075 H 60.4231 -1.27121 26.0531 H 0.0 **** 0.0
52076 H 61.0116 -1.27416 27.7087 H 0.0 **** 0.0
52077 H 63.0721 -1.32309 26.1179 H 0.0 **** 0.0
52078 H 64.332 6.25209 25.6078 H 0.0 **** 0.0
52079 H 65.1795 5.45475 29.9953 H 0.0 **** 0.0
52080 H 66.8015 5.68259 29.2971 H 0.0 **** 0.0
52081 H 66.0475 3.64238 28.2853 H 0.0 **** 0.0
52082 H 65.9117 7.90754 30.5342 H 0.0 **** 0.0
52083 H 66.7429 8.54808 28.9864 H 0.0 **** 0.0
52084 H 65.0665 10.2569 29.9526 H 0.0 **** 0.0
52085 H 63.8326 8.88865 29.9619 H 0.0 **** 0.0
52086 H 64.4904 8.34152 25.0477 H 0.0 **** 0.0
52087 H 62.8173 8.41821 25.4682 H 0.0 **** 0.0
52088 H 64.6285 10.834 25.4352 H 0.0 **** 0.0
52089 H 61.8706 10.4662 26.6454 H 0.0 **** 0.0
52090 H 62.6929 12.0896 26.3729 H 0.0 **** 0.0
52091 H 62.9793 11.1658 28.6425 H 0.0 **** 0.0
52092 H 64.4453 11.7036 27.8393 H 0.0 **** 0.0
52093 H 62.2722 6.98938 28.749 H 0.0 **** 0.0
52094 H 57.3223 8.88031 29.9654 H 0.0 **** 0.0
52095 H 55.0831 9.67687 30.2895 H 0.0 **** 0.0
52096 H 56.9421 4.14922 29.5214 H 0.0 **** 0.0
52097 H 49.4745 11.8807 29.2843 H 0.0 **** 0.0
52098 H 51.4721 11.8933 28.301 H 0.0 **** 0.0
52099 H 53.1521 11.5012 30.8838 H 0.0 **** 0.0
52100 H 52.8186 13.702 30.2519 H 0.0 **** 0.0
52101 H 52.7135 13.8407 28.4857 H 0.0 **** 0.0
52102 H 50.1694 14.3052 28.7864 H 0.0 **** 0.0
52103 H 51.3494 15.5439 29.4513 H 0.0 **** 0.0
52104 H 51.0941 14.5895 31.7341 H 0.0 **** 0.0
52105 H 50.5752 12.381 32.1206 H 0.0 **** 0.0
52106 H 47.8028 12.7897 31.0588 H 0.0 **** 0.0
52107 H 48.4275 11.5432 32.2017 H 0.0 **** 0.0
52108 H 49.002 13.297 33.8148 H 0.0 **** 0.0
52109 H 47.3253 13.5071 33.4533 H 0.0 **** 0.0
52110 H 49.5542 15.4379 33.3281 H 0.0 **** 0.0
52111 H 47.9411 15.7865 32.8508 H 0.0 **** 0.0
52112 H 48.3574 14.9213 30.6192 H 0.0 **** 0.0
52113 H 52.5489 -0.467968 28.3199 H 0.0 **** 0.0
52114 H 54.6972 -0.3781 27.2248 H 0.0 **** 0.0
52115 H 54.8723 1.62973 25.3874 H 0.0 **** 0.0
52116 H 54.8176 -0.0995653 24.9822 H 0.0 **** 0.0
52117 H 52.96 1.16383 23.656 H 0.0 **** 0.0
52118 H 52.4056 1.77146 25.1651 H 0.0 **** 0.0
52119 H 52.2719 -1.04251 24.1436 H 0.0 **** 0.0
52120 H 50.9272 -0.0965917 24.6258 H 0.0 **** 0.0
52121 H 52.676 -1.83917 26.3638 H 0.0 **** 0.0
52122 H 51.0347 -1.27011 26.702 H 0.0 **** 0.0
52123 H 50.0864 3.33162 26.7351 H 0.0 **** 0.0
52124 H 47.9954 2.58881 29.5775 H 0.0 **** 0.0
52125 H 47.8491 9.86211 29.5731 H 0.0 **** 0.0
52126 H 45.9627 9.49698 31.731 H 0.0 **** 0.0
52127 H 44.0583 8.5999 32.3841 H 0.0 **** 0.0
52128 H 42.6741 8.80183 29.7014 H 0.0 **** 0.0
52129 H 42.5867 10.7427 32.0969 H 0.0 **** 0.0
52130 H 41.8798 10.9924 30.4268 H 0.0 **** 0.0
52131 H 44.494 11.7771 31.4727 H 0.0 **** 0.0
52132 H 43.755 12.1127 29.8527 H 0.0 **** 0.0
52133 H 45.8908 10.9849 29.6544 H 0.0 **** 0.0
52134 H 44.6619 9.96389 28.9688 H 0.0 **** 0.0
52135 H 62.1551 9.85046 23.7409 H 0.0 **** 0.0
52136 H 62.0895 11.9923 22.6722 H 0.0 **** 0.0
52137 H 63.398 12.7313 23.8066 H 0.0 **** 0.0
52138 H 61.7517 12.2261 24.3746 H 0.0 **** 0.0
52139 H 64.5639 9.16928 23.089 H 0.0 **** 0.0
52140 H 64.9971 10.917 22.9411 H 0.0 **** 0.0
52141 H 63.7026 10.1761 21.8886 H 0.0 **** 0.0
52142 H 54.5466 11.8133 29.2832 H 0.0 **** 0.0
52143 H 44.1191 1.82979 29.8864 H 0.0 **** 0.0
52144 H 42.6607 2.31343 32.4643 H 0.0 **** 0.0
52145 H 40.2822 2.10457 32.7257 H 0.0 **** 0.0
52146 H 38.2753 3.41588 33.2089 H 0.0 **** 0.0
52147 H 35.7719 2.23029 32.2048 H 0.0 **** 0.0
52148 H 34.1846 6.59385 31.8478 H 0.0 **** 0.0
52149 H 34.0743 4.2266 31.2826 H 0.0 **** 0.0
52150 H 40.1338 10.0292 31.8537 H 0.0 **** 0.0
52151 H 38.5826 10.329 33.5422 H 0.0 **** 0.0
52152 H 37.8742 11.3084 32.2904 H 0.0 **** 0.0
52153 H 36.5318 11.3926 34.3291 H 0.0 **** 0.0
52154 H 36.3981 9.70139 34.4776 H 0.0 **** 0.0
52155 H 35.2022 11.3239 32.223 H 0.0 **** 0.0
52156 H 34.3156 10.4439 33.4515 H 0.0 **** 0.0
52157 C 75.8211 55.0342 68.7699 C 0.0 **** 0.0
52158 C 76.8389 55.9467 68.1071 C 0.0 **** 0.0
52159 C 76.3159 57.383 67.908 C 0.0 **** 0.0
52160 C 74.9614 57.2795 67.1011 C 0.0 **** 0.0
52161 C 74.208 55.9327 67.3744 C 0.0 **** 0.0
52162 O 74.4594 55.4548 68.6463 O 0.0 **** 0.0
52163 C 75.0694 57.5407 65.5292 C 0.0 **** 0.0
52164 C 76.1648 58.5879 65.1233 C 0.0 **** 0.0
52165 C 76.8095 59.3056 66.3224 C 0.0 **** 0.0
52166 C 77.4055 58.2853 67.2471 C 0.0 **** 0.0
52167 O 75.6643 59.6036 64.2619 O 0.0 **** 0.0
52168 C 74.99 59.0998 63.1117 C 0.0 **** 0.0
52169 C 73.797 58.1637 63.4638 C 0.0 **** 0.0
52170 C 73.7504 58.0185 65.0332 C 0.0 **** 0.0
52171 C 73.7024 56.8616 62.7542 C 0.0 **** 0.0
52172 C 74.7716 56.3921 61.8813 C 0.0 **** 0.0
52173 C 75.3724 57.5732 61.0589 C 0.0 **** 0.0
52174 C 75.9981 58.5969 62.0151 C 0.0 **** 0.0
52175 C 76.3568 57.0928 59.97 C 0.0 **** 0.0
52176 C 75.6292 56.0684 59.0906 C 0.0 **** 0.0
52177 C 75.2538 54.8357 59.9438 C 0.0 **** 0.0
52178 C 74.1903 55.33 60.9305 C 0.0 **** 0.0
52179 C 73.6515 54.1704 61.7648 C 0.0 **** 0.0
52180 C 72.4852 54.6286 62.6058 C 0.0 **** 0.0
52181 C 72.5757 56.08 62.9913 C 0.0 **** 0.0
52182 O 74.7149 53.7179 59.1927 O 0.0 **** 0.0
52183 C 74.4785 54.1244 57.8742 C 0.0 **** 0.0
52184 C 75.7799 54.4367 57.149 C 0.0 **** 0.0
52185 C 76.4694 55.5699 57.9366 C 0.0 **** 0.0
52186 C 76.7894 59.6647 61.2298 C 0.0 **** 0.0
52187 C 77.7429 59.1547 60.1324 C 0.0 **** 0.0
52188 C 76.8634 58.3138 59.1347 C 0.0 **** 0.0
52189 C 78.6114 60.254 59.5275 C 0.0 **** 0.0
52190 C 78.3155 61.5651 59.6757 C 0.0 **** 0.0
52191 C 77.2534 62.0594 60.6227 C 0.0 **** 0.0
52192 C 76.6177 61.0086 61.4718 C 0.0 **** 0.0
52193 C 79.0389 62.6099 58.8565 C 0.0 **** 0.0
52194 C 79.4998 62.0168 57.5456 C 0.0 **** 0.0
52195 C 80.2839 60.785 57.8402 C 0.0 **** 0.0
52196 C 79.8161 59.8837 58.721 C 0.0 **** 0.0
52197 C 80.5763 58.5386 58.916 C 0.0 **** 0.0
52198 C 81.7741 58.3199 57.9408 C 0.0 **** 0.0
52199 C 81.5082 59.0008 56.6019 C 0.0 **** 0.0
52200 C 81.3 60.4537 56.7861 C 0.0 **** 0.0
52201 C 76.8286 56.7964 57.0626 C 0.0 **** 0.0
52202 C 77.606 57.8251 57.8802 C 0.0 **** 0.0
52203 C 75.5961 54.7388 55.6477 C 0.0 **** 0.0
52204 C 76.9585 54.8718 54.9834 C 0.0 **** 0.0
52205 S 77.8386 56.3317 55.6592 S 0.0 **** 0.0
52206 C 76.8483 55.0593 53.4291 C 0.0 **** 0.0
52207 C 76.0115 53.904 52.8142 C 0.0 **** 0.0
52208 C 74.6155 53.8697 53.4733 C 0.0 **** 0.0
52209 C 74.7274 53.6609 54.9659 C 0.0 **** 0.0
52210 C 73.82 52.6552 52.9159 C 0.0 **** 0.0
52211 C 73.5451 52.8344 51.4009 C 0.0 **** 0.0
52212 C 74.8693 53.049 50.6128 C 0.0 **** 0.0
52213 C 75.8664 54.0252 51.2873 C 0.0 **** 0.0
52214 C 74.6203 53.316 49.0725 C 0.0 **** 0.0
52215 C 73.3974 52.6006 48.3912 C 0.0 **** 0.0
52216 C 72.4181 51.8877 49.3892 C 0.0 **** 0.0
52217 C 72.8585 51.6182 50.8281 C 0.0 **** 0.0
52218 C 73.3794 53.6588 55.6718 C 0.0 **** 0.0
52219 C 73.6302 53.0862 57.1107 C 0.0 **** 0.0
52220 C 72.611 52.1227 53.7787 C 0.0 **** 0.0
52221 C 72.2169 53.0914 54.8867 C 0.0 **** 0.0
52222 C 71.7287 50.9231 51.7058 C 0.0 **** 0.0
52223 C 71.3876 51.7983 52.9322 C 0.0 **** 0.0
52224 C 71.5191 50.7953 48.7155 C 0.0 **** 0.0
52225 C 70.8111 49.9074 49.6945 C 0.0 **** 0.0
52226 C 70.4348 50.6854 50.9545 C 0.0 **** 0.0
52227 O 72.5823 53.5534 47.7011 O 0.0 **** 0.0
52228 C 73.2977 54.0271 46.5795 C 0.0 **** 0.0
52229 C 74.6011 54.7712 47.0671 C 0.0 **** 0.0
52230 C 74.7639 54.7908 48.5631 C 0.0 **** 0.0
52231 C 74.5857 56.2495 46.5461 C 0.0 **** 0.0
52232 C 74.3835 56.2127 45.052 C 0.0 **** 0.0
52233 C 72.9373 55.8148 44.6833 C 0.0 **** 0.0
52234 C 72.2801 54.9063 45.7712 C 0.0 **** 0.0
52235 C 71.1938 54.0236 45.1878 C 0.0 **** 0.0
52236 C 70.5471 54.5802 43.8905 C 0.0 **** 0.0
52237 C 71.6558 54.842 42.799 C 0.0 **** 0.0
52238 N 72.9646 55.1261 43.3886 N 0.0 **** 0.0
52239 C 71.1281 52.4347 55.7953 C 0.0 **** 0.0
52240 C 69.8953 51.9976 54.9339 C 0.0 **** 0.0
52241 C 70.3315 51.0803 53.811 C 0.0 **** 0.0
52242 O 68.9734 51.3399 55.7741 O 0.0 **** 0.0
52243 C 68.5142 52.2164 56.7536 C 0.0 **** 0.0
52244 C 69.6564 52.9687 57.5205 C 0.0 **** 0.0
52245 O 70.6915 53.4352 56.6846 O 0.0 **** 0.0
52246 C 70.1428 52.1415 58.7388 C 0.0 **** 0.0
52247 C 69.0181 52.029 59.7919 C 0.0 **** 0.0
52248 C 67.6133 51.877 59.1339 C 0.0 **** 0.0
52249 C 67.6144 51.3966 57.7187 C 0.0 **** 0.0
52250 C 69.4945 49.8601 51.8113 C 0.0 **** 0.0
52251 C 69.1169 50.6554 53.0182 C 0.0 **** 0.0
52252 C 69.6389 49.261 48.9718 C 0.0 **** 0.0
52253 C 68.7299 48.5354 49.8899 C 0.0 **** 0.0
52254 C 68.247 49.3534 51.086 C 0.0 **** 0.0
52255 C 70.2293 48.2232 48.0478 C 0.0 **** 0.0
52256 C 71.1802 48.8819 47.0538 C 0.0 **** 0.0
52257 C 72.259 49.769 47.7625 C 0.0 **** 0.0
52258 O 67.606 48.0532 49.1698 O 0.0 **** 0.0
52259 C 68.1122 46.9483 48.4759 C 0.0 **** 0.0
52260 C 69.1124 47.3988 47.4046 C 0.0 **** 0.0
52261 C 71.7341 47.8843 45.9781 C 0.0 **** 0.0
52262 C 70.7212 46.7387 45.6052 C 0.0 **** 0.0
52263 C 69.7757 46.2345 46.6959 C 0.0 **** 0.0
52264 C 71.4339 45.4349 45.075 C 0.0 **** 0.0
52265 C 72.5962 45.8775 44.1436 C 0.0 **** 0.0
52266 C 73.674 46.6504 44.9678 C 0.0 **** 0.0
52267 C 73.1215 47.3032 46.2364 C 0.0 **** 0.0
52268 C 68.689 45.3289 46.0594 C 0.0 **** 0.0
52269 C 67.6628 44.8331 47.1175 C 0.0 **** 0.0
52270 C 67.0178 46.0261 47.8347 C 0.0 **** 0.0
52271 C 70.4301 44.4793 44.3692 C 0.0 **** 0.0
52272 C 69.2858 44.1104 45.2958 C 0.0 **** 0.0
52273 C 82.318 56.8581 57.8167 C 0.0 **** 0.0
52274 C 81.4246 55.9286 56.9558 C 0.0 **** 0.0
52275 C 83.7895 56.7658 57.2714 C 0.0 **** 0.0
52276 O 76.0376 55.3327 48.8923 O 0.0 **** 0.0
52277 C 65.8898 45.6008 48.806 C 0.0 **** 0.0
52278 C 64.8703 44.7036 48.1315 C 0.0 **** 0.0
52279 C 65.5154 43.5382 47.4537 C 0.0 **** 0.0
52280 C 66.5682 43.9892 46.4343 C 0.0 **** 0.0
52281 C 67.1691 42.8034 45.6615 C 0.0 **** 0.0
52282 C 66.0984 41.8164 45.1133 C 0.0 **** 0.0
52283 C 64.658 42.1928 45.4253 C 0.0 **** 0.0
52284 C 64.4997 42.5019 46.9451 C 0.0 **** 0.0
52285 C 63.7963 41.0017 44.9621 C 0.0 **** 0.0
52286 C 63.9368 40.6698 43.4823 C 0.0 **** 0.0
52287 C 65.4153 40.4387 43.0777 C 0.0 **** 0.0
52288 C 66.2906 41.5639 43.6342 C 0.0 **** 0.0
52289 C 67.7229 41.4904 43.0628 C 0.0 **** 0.0
52290 C 68.7997 42.0178 43.9648 C 0.0 **** 0.0
52291 C 68.1809 43.2466 44.6266 C 0.0 **** 0.0
52292 C 68.1115 40.1833 42.3021 C 0.0 **** 0.0
52293 C 67.0119 39.8466 41.2445 C 0.0 **** 0.0
52294 C 65.6236 40.3833 41.599 C 0.0 **** 0.0
52295 C 71.0726 43.1884 43.8351 C 0.0 **** 0.0
52296 C 70.0098 42.333 43.1411 C 0.0 **** 0.0
52297 C 69.5375 40.3198 41.7114 C 0.0 **** 0.0
52298 C 70.5435 40.9356 42.6702 C 0.0 **** 0.0
52299 C 72.0332 40.8841 42.2557 C 0.0 **** 0.0
52300 C 72.4268 39.6426 41.4026 C 0.0 **** 0.0
52301 C 71.3468 38.5199 41.6028 C 0.0 **** 0.0
52302 C 70.0207 39.0015 41.1862 C 0.0 **** 0.0
52303 O 69.4238 38.4291 40.3009 O 0.0 **** 0.0
52304 H 76.0637 55.0504 69.8494 H 0.0 **** 0.0
52305 H 75.919 53.9503 68.4203 H 0.0 **** 0.0
52306 H 77.7651 55.9494 68.6753 H 0.0 **** 0.0
52307 H 77.1371 55.5276 67.1112 H 0.0 **** 0.0
52308 H 76.0866 57.7226 68.9698 H 0.0 **** 0.0
52309 H 74.3581 58.0704 67.5727 H 0.0 **** 0.0
52310 H 74.4731 55.1216 66.6172 H 0.0 **** 0.0
52311 H 73.1125 56.1051 67.307 H 0.0 **** 0.0
52312 H 75.29 56.5527 65.0453 H 0.0 **** 0.0
52313 H 76.9815 58.0681 64.667 H 0.0 **** 0.0
52314 H 76.0478 59.9238 66.877 H 0.0 **** 0.0
52315 H 77.6035 59.9831 65.9785 H 0.0 **** 0.0
52316 H 77.9015 58.8708 68.0368 H 0.0 **** 0.0
52317 H 78.2175 57.7088 66.6762 H 0.0 **** 0.0
52318 H 74.5005 59.9809 62.6655 H 0.0 **** 0.0
52319 H 72.8522 58.6912 63.2796 H 0.0 **** 0.0
52320 H 72.8811 57.3175 65.3702 H 0.0 **** 0.0
52321 H 73.4387 58.946 65.4999 H 0.0 **** 0.0
52322 H 76.746 57.9877 62.4926 H 0.0 **** 0.0
52323 H 73.2214 53.3249 61.152 H 0.0 **** 0.0
52324 H 74.4641 53.7847 62.4166 H 0.0 **** 0.0
52325 H 72.3468 54.0362 63.4707 H 0.0 **** 0.0
52326 H 71.5665 54.3932 62.0093 H 0.0 **** 0.0
52327 H 71.6631 56.5961 63.3114 H 0.0 **** 0.0
52328 H 78.451 58.4789 60.6499 H 0.0 **** 0.0
52329 H 76.534 62.6085 60.0706 H 0.0 **** 0.0
52330 H 77.7187 62.819 61.2888 H 0.0 **** 0.0
52331 H 75.8695 61.3588 62.1797 H 0.0 **** 0.0
52332 H 78.3851 63.5087 58.5766 H 0.0 **** 0.0
52333 H 79.8803 63.0017 59.4357 H 0.0 **** 0.0
52334 H 80.0537 62.7644 56.9632 H 0.0 **** 0.0
52335 H 78.5448 61.7284 56.9526 H 0.0 **** 0.0
52336 H 80.8789 58.4638 59.953 H 0.0 **** 0.0
52337 H 79.886 57.7033 58.8075 H 0.0 **** 0.0
52338 H 82.6106 58.8725 58.4391 H 0.0 **** 0.0
52339 H 80.564 58.6053 56.2123 H 0.0 **** 0.0
52340 H 82.2759 58.8103 55.8586 H 0.0 **** 0.0
52341 H 81.0501 60.9193 55.8123 H 0.0 **** 0.0
52342 H 82.2108 60.954 57.1418 H 0.0 **** 0.0
52343 H 77.8104 58.6867 57.1973 H 0.0 **** 0.0
52344 H 77.8089 55.1288 53.0158 H 0.0 **** 0.0
52345 H 76.8397 53.9234 50.8025 H 0.0 **** 0.0
52346 H 72.7583 52.7964 57.6921 H 0.0 **** 0.0
52347 H 73.5625 53.1529 46.0025 H 0.0 **** 0.0
52348 H 75.4145 54.2116 46.6212 H 0.0 **** 0.0
52349 H 73.9257 55.3796 49.0428 H 0.0 **** 0.0
52350 H 73.7815 56.8652 47.0019 H 0.0 **** 0.0
52351 H 75.5244 56.7995 46.818 H 0.0 **** 0.0
52352 H 75.1223 55.4676 44.6299 H 0.0 **** 0.0
52353 H 74.6091 57.2407 44.5815 H 0.0 **** 0.0
52354 H 72.3734 56.7637 44.5959 H 0.0 **** 0.0
52355 H 71.7488 55.5762 46.4998 H 0.0 **** 0.0
52356 H 71.5873 53.0393 44.9408 H 0.0 **** 0.0
52357 H 70.4112 53.9084 45.9505 H 0.0 **** 0.0
52358 H 70.0349 55.61 44.0332 H 0.0 **** 0.0
52359 H 69.8648 53.8268 43.4502 H 0.0 **** 0.0
52360 H 71.343 55.6953 42.2166 H 0.0 **** 0.0
52361 H 71.7176 53.9889 42.0916 H 0.0 **** 0.0
52362 H 73.5054 54.2299 43.4284 H 0.0 **** 0.0
52363 H 67.9105 53.0339 56.2444 H 0.0 **** 0.0
52364 H 69.1351 53.8787 57.8835 H 0.0 **** 0.0
52365 H 70.475 51.1336 58.3936 H 0.0 **** 0.0
52366 H 71.0021 52.6081 59.1556 H 0.0 **** 0.0
52367 H 69.0236 53.0037 60.3749 H 0.0 **** 0.0
52368 H 69.3037 51.1757 60.4737 H 0.0 **** 0.0
52369 H 67.1225 52.8492 59.1436 H 0.0 **** 0.0
52370 H 67.0448 51.2517 59.8598 H 0.0 **** 0.0
52371 H 66.5343 51.3818 57.3915 H 0.0 **** 0.0
52372 H 67.9893 50.3665 57.7257 H 0.0 **** 0.0
52373 H 68.5209 50.0792 53.7533 H 0.0 **** 0.0
52374 H 67.5725 48.7719 51.6969 H 0.0 **** 0.0
52375 H 72.7993 50.3538 46.9936 H 0.0 **** 0.0
52376 H 71.8212 48.5436 45.1177 H 0.0 **** 0.0
52377 H 70.1471 47.1576 44.7759 H 0.0 **** 0.0
52378 H 71.8264 44.8304 45.9466 H 0.0 **** 0.0
52379 H 72.2 46.484 43.2885 H 0.0 **** 0.0
52380 H 73.0561 44.987 43.6108 H 0.0 **** 0.0
52381 H 73.9949 47.5106 44.3719 H 0.0 **** 0.0
52382 H 74.5005 45.9798 45.2932 H 0.0 **** 0.0
52383 H 73.8545 48.0688 46.5606 H 0.0 **** 0.0
52384 H 73.036 46.517 47.0589 H 0.0 **** 0.0
52385 H 82.3724 56.5024 58.8373 H 0.0 **** 0.0
52386 H 81.8873 54.9479 56.8453 H 0.0 **** 0.0
52387 H 81.3452 56.353 55.9777 H 0.0 **** 0.0
52388 H 80.434 55.8924 57.4368 H 0.0 **** 0.0
52389 H 84.4226 57.4263 57.8954 H 0.0 **** 0.0
52390 H 83.8116 57.134 56.2337 H 0.0 **** 0.0
52391 H 84.1564 55.7229 57.2945 H 0.0 **** 0.0
52392 H 75.8668 56.2091 49.3252 H 0.0 **** 0.0
52393 H 65.384 46.535 49.2211 H 0.0 **** 0.0
52394 H 64.1832 44.2859 48.9679 H 0.0 **** 0.0
52395 H 63.443 42.742 47.2195 H 0.0 **** 0.0
52396 H 62.7157 41.1096 45.3023 H 0.0 **** 0.0
52397 H 63.3207 39.833 43.2034 H 0.0 **** 0.0
52398 H 66.9497 38.7635 41.3235 H 0.0 **** 0.0
52399 H 64.8937 39.7801 41.1156 H 0.0 **** 0.0
52400 H 71.451 42.6141 44.6467 H 0.0 **** 0.0
52401 H 72.2189 41.7825 41.6263 H 0.0 **** 0.0
52402 H 72.6853 40.902 43.1364 H 0.0 **** 0.0
52403 H 73.4517 39.3006 41.6716 H 0.0 **** 0.0
52404 H 72.4835 39.8817 40.3404 H 0.0 **** 0.0
52405 H 71.2311 38.2168 42.6182 H 0.0 **** 0.0
52406 H 71.6406 37.6112 41.053 H 0.0 **** 0.0
52407 C 46.5689 102.257 34.3046 C 0.0 **** 0.0
52408 C 46.5268 101.238 33.1349 C 0.0 **** 0.0
52409 C 47.7285 100.271 33.2141 C 0.0 **** 0.0
52410 C 49.0626 101.062 33.2331 C 0.0 **** 0.0
52411 C 48.8818 102.447 33.8707 C 0.0 **** 0.0
52412 O 47.8776 102.382 34.869 O 0.0 **** 0.0
52413 C 49.7688 101.029 31.8446 C 0.0 **** 0.0
52414 C 50.2271 99.5287 31.5659 C 0.0 **** 0.0
52415 C 49.0936 98.5461 31.873 C 0.0 **** 0.0
52416 C 47.7141 99.2387 32.0673 C 0.0 **** 0.0
52417 O 51.3463 99.1253 32.3097 O 0.0 **** 0.0
52418 C 52.4921 99.9197 32.0605 C 0.0 **** 0.0
52419 C 52.28 101.456 32.2942 C 0.0 **** 0.0
52420 C 50.9831 101.975 31.6074 C 0.0 **** 0.0
52421 C 53.5042 102.244 31.9097 C 0.0 **** 0.0
52422 C 54.1684 101.977 30.7068 C 0.0 **** 0.0
52423 C 54.4756 100.468 30.5942 C 0.0 **** 0.0
52424 C 53.189 99.5737 30.7159 C 0.0 **** 0.0
52425 C 55.1878 100.134 29.2683 C 0.0 **** 0.0
52426 C 56.4736 100.955 29.0888 C 0.0 **** 0.0
52427 C 56.0631 102.454 29.1274 C 0.0 **** 0.0
52428 C 55.5064 102.755 30.5489 C 0.0 **** 0.0
52429 C 55.1918 104.22 30.6912 C 0.0 **** 0.0
52430 C 54.6688 104.517 32.0672 C 0.0 **** 0.0
52431 C 53.7241 103.454 32.5533 C 0.0 **** 0.0
52432 O 57.0986 103.332 28.7076 O 0.0 **** 0.0
52433 C 57.4498 103.077 27.3325 C 0.0 **** 0.0
52434 C 57.0426 101.726 26.72 C 0.0 **** 0.0
52435 C 57.2273 100.636 27.7661 C 0.0 **** 0.0
52436 C 53.5167 98.1216 30.464 C 0.0 **** 0.0
52437 C 54.2973 97.8408 29.1728 C 0.0 **** 0.0
52438 C 55.5697 98.6662 29.2829 C 0.0 **** 0.0
52439 C 54.5086 96.3384 28.8937 C 0.0 **** 0.0
52440 C 54.7193 95.5228 29.9119 C 0.0 **** 0.0
52441 C 54.3205 95.9249 31.2757 C 0.0 **** 0.0
52442 C 53.4255 97.1478 31.3476 C 0.0 **** 0.0
52443 C 55.2652 94.1027 29.6826 C 0.0 **** 0.0
52444 C 56.205 94.1725 28.4025 C 0.0 **** 0.0
52445 C 55.4822 94.8066 27.2271 C 0.0 **** 0.0
52446 C 54.7218 95.8834 27.4805 C 0.0 **** 0.0
52447 C 53.985 96.5876 26.3572 C 0.0 **** 0.0
52448 C 54.0073 95.8166 25.0046 C 0.0 **** 0.0
52449 C 55.4627 95.3423 24.7366 C 0.0 **** 0.0
52450 C 55.787 94.3132 25.8081 C 0.0 **** 0.0
52451 C 56.7883 99.2754 27.1881 C 0.0 **** 0.0
52452 C 56.6706 98.2013 28.2497 C 0.0 **** 0.0
52453 C 57.8671 101.45 25.5184 C 0.0 **** 0.0
52454 C 57.4517 100.136 24.8153 C 0.0 **** 0.0
52455 S 57.908 98.7044 25.8342 S 0.0 **** 0.0
52456 C 58.1082 99.985 23.4527 C 0.0 **** 0.0
52457 C 59.2011 101.002 23.2104 C 0.0 **** 0.0
52458 C 58.5484 102.36 23.2232 C 0.0 **** 0.0
52459 C 57.7952 102.618 24.5386 C 0.0 **** 0.0
52460 C 59.5013 103.486 22.8841 C 0.0 **** 0.0
52461 C 60.4844 103.257 21.7601 C 0.0 **** 0.0
52462 C 61.0655 101.858 21.8695 C 0.0 **** 0.0
52463 C 59.9098 100.823 21.8566 C 0.0 **** 0.0
52464 C 62.0971 101.571 20.7558 C 0.0 **** 0.0
52465 C 63.1762 102.7 20.7347 C 0.0 **** 0.0
52466 C 62.7509 104.127 21.007 C 0.0 **** 0.0
52467 C 61.6164 104.214 22.0421 C 0.0 **** 0.0
52468 C 57.9336 104.021 25.1163 C 0.0 **** 0.0
52469 C 57.1824 104.251 26.3972 C 0.0 **** 0.0
52470 C 58.8766 104.918 22.8992 C 0.0 **** 0.0
52471 C 57.7258 105.039 23.9211 C 0.0 **** 0.0
52472 C 61.1931 105.697 22.2458 C 0.0 **** 0.0
52473 C 60.0384 105.88 23.1915 C 0.0 **** 0.0
52474 C 62.3866 104.874 19.73 C 0.0 **** 0.0
52475 C 62.1724 106.337 20.0911 C 0.0 **** 0.0
52476 C 60.9533 106.458 20.9027 C 0.0 **** 0.0
52477 O 64.3574 102.324 21.2986 O 0.0 **** 0.0
52478 C 65.0187 101.482 20.4 C 0.0 **** 0.0
52479 C 64.1452 100.208 20.0676 C 0.0 **** 0.0
52480 C 62.8044 100.199 20.8923 C 0.0 **** 0.0
52481 C 64.8878 98.8973 20.1716 C 0.0 **** 0.0
52482 C 66.2349 99.0271 19.4834 C 0.0 **** 0.0
52483 C 67.1363 100.11 20.1179 C 0.0 **** 0.0
52484 C 66.3479 101.113 21.0111 C 0.0 **** 0.0
52485 C 67.1657 102.44 21.2133 C 0.0 **** 0.0
52486 C 68.6603 102.192 21.1249 C 0.0 **** 0.0
52487 C 69.0397 101.644 19.7712 C 0.0 **** 0.0
52488 N 67.9726 100.852 19.1527 N 0.0 **** 0.0
52489 C 57.2258 106.466 24.1717 C 0.0 **** 0.0
52490 C 58.3766 107.519 24.2629 C 0.0 **** 0.0
52491 C 59.4936 107.338 23.2507 C 0.0 **** 0.0
52492 O 57.978 108.865 24.2242 O 0.0 **** 0.0
52493 C 56.5857 109.088 24.2264 C 0.0 **** 0.0
52494 C 55.7885 108.15 23.2406 C 0.0 **** 0.0
52495 O 56.3997 106.86 23.0783 O 0.0 **** 0.0
52496 C 55.4632 108.742 21.8597 C 0.0 **** 0.0
52497 C 55.4746 110.303 21.8091 C 0.0 **** 0.0
52498 C 55.1535 110.926 23.1776 C 0.0 **** 0.0
52499 C 56.3221 110.579 24.0827 C 0.0 **** 0.0
52500 C 60.5916 107.909 21.1796 C 0.0 **** 0.0
52501 C 59.2362 107.961 21.8807 C 0.0 **** 0.0
52502 C 62.3625 107.323 18.9897 C 0.0 **** 0.0
52503 C 62.0993 108.723 19.544 C 0.0 **** 0.0
52504 C 60.6713 108.814 19.9279 C 0.0 **** 0.0
52505 C 63.8117 107.196 18.4918 C 0.0 **** 0.0
52506 C 63.9733 105.866 17.7906 C 0.0 **** 0.0
52507 C 63.5725 104.719 18.7571 C 0.0 **** 0.0
52508 O 62.3553 109.729 18.5988 O 0.0 **** 0.0
52509 C 63.7247 109.695 18.3029 C 0.0 **** 0.0
52510 C 64.0157 108.339 17.5331 C 0.0 **** 0.0
52511 C 65.4577 105.675 17.2941 C 0.0 **** 0.0
52512 C 66.1939 107.021 16.7837 C 0.0 **** 0.0
52513 C 65.5145 108.352 17.1453 C 0.0 **** 0.0
52514 C 66.5673 107.004 15.246 C 0.0 **** 0.0
52515 C 67.3817 105.75 14.8861 C 0.0 **** 0.0
52516 C 67.0228 104.513 15.7479 C 0.0 **** 0.0
52517 C 65.5764 104.54 16.2688 C 0.0 **** 0.0
52518 C 65.7651 109.586 16.1964 C 0.0 **** 0.0
52519 C 65.5442 110.888 16.9888 C 0.0 **** 0.0
52520 C 64.1265 110.964 17.5112 C 0.0 **** 0.0
52521 C 67.3583 108.245 14.7546 C 0.0 **** 0.0
52522 C 67.1317 109.549 15.5468 C 0.0 **** 0.0
52523 C 53.3561 96.614 23.8241 C 0.0 **** 0.0
52524 C 54.2607 97.8034 23.312 C 0.0 **** 0.0
52525 C 52.9695 95.7274 22.6433 C 0.0 **** 0.0
52526 O 61.905 99.2283 20.4096 O 0.0 **** 0.0
52527 C 63.8603 112.219 18.3782 C 0.0 **** 0.0
52528 C 64.3198 113.513 17.6794 C 0.0 **** 0.0
52529 C 65.731 113.415 17.1045 C 0.0 **** 0.0
52530 C 65.853 112.156 16.2131 C 0.0 **** 0.0
52531 C 67.2308 112.034 15.5805 C 0.0 **** 0.0
52532 C 67.4738 113.275 14.7254 C 0.0 **** 0.0
52533 C 67.4242 114.523 15.6388 C 0.0 **** 0.0
52534 C 66.0019 114.649 16.274 C 0.0 **** 0.0
52535 C 67.8022 115.733 14.8433 C 0.0 **** 0.0
52536 C 69.2207 115.581 14.2707 C 0.0 **** 0.0
52537 C 69.3127 114.383 13.2917 C 0.0 **** 0.0
52538 C 68.7828 113.134 13.9653 C 0.0 **** 0.0
52539 C 68.5597 112.022 12.97 C 0.0 **** 0.0
52540 C 68.4479 110.699 13.7361 C 0.0 **** 0.0
52541 C 67.2471 110.795 14.6825 C 0.0 **** 0.0
52542 C 69.4802 112.043 11.7682 C 0.0 **** 0.0
52543 C 70.8465 112.683 12.1031 C 0.0 **** 0.0
52544 C 70.7303 113.998 12.8795 C 0.0 **** 0.0
52545 C 67.3132 108.39 13.2495 C 0.0 **** 0.0
52546 C 68.3841 109.423 12.8511 C 0.0 **** 0.0
52547 C 69.6841 110.682 11.0829 C 0.0 **** 0.0
52548 C 68.5403 109.637 11.3595 C 0.0 **** 0.0
52549 C 68.8457 108.239 10.6724 C 0.0 **** 0.0
52550 C 69.2353 108.389 9.21521 C 0.0 **** 0.0
52551 C 70.2659 109.466 8.99304 C 0.0 **** 0.0
52552 C 69.7523 110.726 9.58293 C 0.0 **** 0.0
52553 O 69.3503 111.631 8.83097 O 0.0 **** 0.0
52554 H 45.8414 101.99 35.1121 H 0.0 **** 0.0
52555 H 46.2784 103.267 33.9266 H 0.0 **** 0.0
52556 H 45.5637 100.687 33.0928 H 0.0 **** 0.0
52557 H 46.6082 101.791 32.1814 H 0.0 **** 0.0
52558 H 47.6686 99.7209 34.1593 H 0.0 **** 0.0
52559 H 49.7453 100.565 33.9605 H 0.0 **** 0.0
52560 H 48.6212 103.177 33.0927 H 0.0 **** 0.0
52561 H 49.7885 102.836 34.3028 H 0.0 **** 0.0
52562 H 49.0178 101.296 31.0763 H 0.0 **** 0.0
52563 H 50.4191 99.4028 30.4816 H 0.0 **** 0.0
52564 H 49.3248 97.9908 32.8277 H 0.0 **** 0.0
52565 H 49.0601 97.7913 31.0631 H 0.0 **** 0.0
52566 H 46.8795 98.4895 32.2311 H 0.0 **** 0.0
52567 H 47.4642 99.7091 31.1133 H 0.0 **** 0.0
52568 H 53.1817 99.6848 32.8422 H 0.0 **** 0.0
52569 H 52.1595 101.566 33.3903 H 0.0 **** 0.0
52570 H 51.21 102.139 30.5446 H 0.0 **** 0.0
52571 H 50.7608 102.995 31.9059 H 0.0 **** 0.0
52572 H 52.5146 99.9 29.9204 H 0.0 **** 0.0
52573 H 56.1407 104.77 30.5527 H 0.0 **** 0.0
52574 H 54.4742 104.562 29.8942 H 0.0 **** 0.0
52575 H 54.0627 105.451 32.1882 H 0.0 **** 0.0
52576 H 55.5077 104.557 32.7558 H 0.0 **** 0.0
52577 H 53.1786 103.712 33.4255 H 0.0 **** 0.0
52578 H 53.6857 98.2566 28.3583 H 0.0 **** 0.0
52579 H 55.2448 96.1601 31.8761 H 0.0 **** 0.0
52580 H 53.8129 95.0519 31.7039 H 0.0 **** 0.0
52581 H 52.9269 97.3253 32.2868 H 0.0 **** 0.0
52582 H 55.8109 93.6304 30.5661 H 0.0 **** 0.0
52583 H 54.4907 93.423 29.3717 H 0.0 **** 0.0
52584 H 56.5932 93.2006 28.1413 H 0.0 **** 0.0
52585 H 57.0687 94.8329 28.6462 H 0.0 **** 0.0
52586 H 52.9097 96.7091 26.6515 H 0.0 **** 0.0
52587 H 54.4607 97.5904 26.2432 H 0.0 **** 0.0
52588 H 53.3672 94.907 25.2024 H 0.0 **** 0.0
52589 H 56.1476 96.2343 24.7699 H 0.0 **** 0.0
52590 H 55.5994 94.8898 23.7426 H 0.0 **** 0.0
52591 H 56.8518 94.0729 25.7945 H 0.0 **** 0.0
52592 H 55.1959 93.419 25.571 H 0.0 **** 0.0
52593 H 57.6513 98.1048 28.7308 H 0.0 **** 0.0
52594 H 58.3427 98.9457 23.2109 H 0.0 **** 0.0
52595 H 60.278 99.812 21.8927 H 0.0 **** 0.0
52596 H 57.5185 105.148 26.8822 H 0.0 **** 0.0
52597 H 65.1966 102.048 19.3818 H 0.0 **** 0.0
52598 H 63.8748 100.254 18.9902 H 0.0 **** 0.0
52599 H 63.053 99.9041 21.9948 H 0.0 **** 0.0
52600 H 64.9332 98.4866 21.2403 H 0.0 **** 0.0
52601 H 64.3286 98.0894 19.6218 H 0.0 **** 0.0
52602 H 66.0212 99.3467 18.4098 H 0.0 **** 0.0
52603 H 66.799 98.0294 19.4812 H 0.0 **** 0.0
52604 H 67.879 99.5344 20.7702 H 0.0 **** 0.0
52605 H 66.1239 100.659 21.9825 H 0.0 **** 0.0
52606 H 66.9303 103.287 20.4932 H 0.0 **** 0.0
52607 H 66.9024 102.846 22.2237 H 0.0 **** 0.0
52608 H 68.9512 101.423 21.8749 H 0.0 **** 0.0
52609 H 69.2628 103.102 21.281 H 0.0 **** 0.0
52610 H 69.9483 100.988 19.8686 H 0.0 **** 0.0
52611 H 69.3266 102.515 19.1273 H 0.0 **** 0.0
52612 H 67.375 101.465 18.5288 H 0.0 **** 0.0
52613 H 56.1868 108.812 25.2108 H 0.0 **** 0.0
52614 H 54.7658 107.979 23.7003 H 0.0 **** 0.0
52615 H 56.2523 108.426 21.1517 H 0.0 **** 0.0
52616 H 54.404 108.444 21.5807 H 0.0 **** 0.0
52617 H 54.7236 110.627 21.0709 H 0.0 **** 0.0
52618 H 56.4734 110.607 21.5372 H 0.0 **** 0.0
52619 H 54.1853 110.506 23.5273 H 0.0 **** 0.0
52620 H 55.0404 112.043 23.1076 H 0.0 **** 0.0
52621 H 56.0506 110.976 25.0424 H 0.0 **** 0.0
52622 H 57.2148 111.175 23.7299 H 0.0 **** 0.0
52623 H 58.4636 107.387 21.3077 H 0.0 **** 0.0
52624 H 60.4291 109.826 20.2872 H 0.0 **** 0.0
52625 H 63.4981 103.791 18.1431 H 0.0 **** 0.0
52626 H 66.0001 105.351 18.2093 H 0.0 **** 0.0
52627 H 67.2182 107.053 17.2953 H 0.0 **** 0.0
52628 H 65.608 106.921 14.7034 H 0.0 **** 0.0
52629 H 68.4787 105.921 14.9687 H 0.0 **** 0.0
52630 H 67.2001 105.496 13.8146 H 0.0 **** 0.0
52631 H 67.7682 104.385 16.5664 H 0.0 **** 0.0
52632 H 67.0763 103.606 15.1312 H 0.0 **** 0.0
52633 H 65.3446 103.569 16.8216 H 0.0 **** 0.0
52634 H 64.9308 104.664 15.4007 H 0.0 **** 0.0
52635 H 52.3662 97.0158 24.2136 H 0.0 **** 0.0
52636 H 53.7046 98.42 22.6181 H 0.0 **** 0.0
52637 H 55.1659 97.436 22.7748 H 0.0 **** 0.0
52638 H 54.5327 98.5051 24.1409 H 0.0 **** 0.0
52639 H 52.31 94.8879 22.9597 H 0.0 **** 0.0
52640 H 53.9025 95.336 22.177 H 0.0 **** 0.0
52641 H 52.3855 96.2112 21.8706 H 0.0 **** 0.0
52642 H 62.2271 98.333 20.7344 H 0.0 **** 0.0
52643 H 62.7465 112.354 18.4656 H 0.0 **** 0.0
52644 H 64.2227 114.383 18.4338 H 0.0 **** 0.0
52645 H 65.2789 114.753 15.4707 H 0.0 **** 0.0
52646 H 67.7506 116.683 15.442 H 0.0 **** 0.0
52647 H 69.6348 116.482 13.7426 H 0.0 **** 0.0
52648 H 71.2894 112.965 11.1336 H 0.0 **** 0.0
52649 H 71.3637 114.834 12.5566 H 0.0 **** 0.0
52650 H 66.2549 108.606 12.9277 H 0.0 **** 0.0
52651 H 69.6094 107.662 11.2888 H 0.0 **** 0.0
52652 H 67.9198 107.605 10.72 H 0.0 **** 0.0
52653 H 68.3916 108.666 8.6148 H 0.0 **** 0.0
52654 H 69.688 107.43 8.879 H 0.0 **** 0.0
52655 H 70.5337 109.602 7.94249 H 0.0 **** 0.0
52656 H 71.1965 109.207 9.51318 H 0.0 **** 0.0
52657 C 95.3431 70.5265 55.3019 C 0.0 **** 0.0
52658 C 94.5496 71.3595 56.3375 C 0.0 **** 0.0
52659 C 94.3392 72.8129 55.7518 C 0.0 **** 0.0
52660 C 95.6071 73.439 55.1842 C 0.0 **** 0.0
52661 C 96.7026 72.3687 55.0658 C 0.0 **** 0.0
52662 O 96.1301 71.2872 54.4188 O 0.0 **** 0.0
52663 C 96.0465 74.7907 55.9368 C 0.0 **** 0.0
52664 C 94.9187 75.7831 55.9448 C 0.0 **** 0.0
52665 C 93.6993 75.1726 56.644 C 0.0 **** 0.0
52666 C 93.5959 73.6521 56.8146 C 0.0 **** 0.0
52667 O 94.5465 76.1125 54.6375 O 0.0 **** 0.0
52668 C 95.5966 76.7912 53.9234 C 0.0 **** 0.0
52669 C 96.8786 75.9523 53.8908 C 0.0 **** 0.0
52670 C 97.2659 75.4537 55.2918 C 0.0 **** 0.0
52671 C 98.0345 76.6683 53.2767 C 0.0 **** 0.0
52672 C 97.848 78.0588 52.7914 C 0.0 **** 0.0
52673 C 96.9926 78.9539 53.7618 C 0.0 **** 0.0
52674 C 95.7811 78.2818 54.3854 C 0.0 **** 0.0
52675 C 96.703 80.3384 53.0893 C 0.0 **** 0.0
52676 C 97.9794 81.0026 52.6268 C 0.0 **** 0.0
52677 C 98.8569 80.079 51.7496 C 0.0 **** 0.0
52678 C 99.1956 78.7548 52.4299 C 0.0 **** 0.0
52679 C 100.094 77.8403 51.5761 C 0.0 **** 0.0
52680 C 100.404 76.5092 52.3323 C 0.0 **** 0.0
52681 C 99.1759 75.902 52.9395 C 0.0 **** 0.0
52682 O 100.085 80.7086 51.5479 O 0.0 **** 0.0
52683 C 99.8753 81.756 50.6263 C 0.0 **** 0.0
52684 C 99.0171 82.8537 51.3589 C 0.0 **** 0.0
52685 C 97.7148 82.2381 51.7403 C 0.0 **** 0.0
52686 C 94.5306 79.1927 54.28 C 0.0 **** 0.0
52687 C 94.7392 80.6852 54.709 C 0.0 **** 0.0
52688 C 95.8847 81.3397 53.9189 C 0.0 **** 0.0
52689 C 93.4296 81.4629 54.7799 C 0.0 **** 0.0
52690 C 92.2832 80.9952 54.2307 C 0.0 **** 0.0
52691 C 92.2834 79.757 53.35 C 0.0 **** 0.0
52692 C 93.4289 78.8212 53.5878 C 0.0 **** 0.0
52693 C 90.9509 81.7374 54.4425 C 0.0 **** 0.0
52694 C 91.1887 83.265 54.5741 C 0.0 **** 0.0
52695 C 92.3518 83.5954 55.4814 C 0.0 **** 0.0
52696 C 93.4003 82.7288 55.6107 C 0.0 **** 0.0
52697 C 94.5552 83.0642 56.5816 C 0.0 **** 0.0
52698 C 94.4101 84.4185 57.3377 C 0.0 **** 0.0
52699 C 93.6825 85.4562 56.4685 C 0.0 **** 0.0
52700 C 92.2668 84.9439 56.2 C 0.0 **** 0.0
52701 C 96.7622 83.2485 52.4845 C 0.0 **** 0.0
52702 C 95.5061 82.5499 53.0138 C 0.0 **** 0.0
52703 C 98.8596 84.1261 50.5248 C 0.0 **** 0.0
52704 C 98.0824 85.2057 51.3018 C 0.0 **** 0.0
52705 S 96.3371 84.6615 51.3958 S 0.0 **** 0.0
52706 C 98.0606 86.4616 50.4368 C 0.0 **** 0.0
52707 C 99.452 87.0311 50.1233 C 0.0 **** 0.0
52708 C 100.264 85.9804 49.3643 C 0.0 **** 0.0
52709 C 100.283 84.6111 50.0992 C 0.0 **** 0.0
52710 C 101.678 86.593 49.2185 C 0.0 **** 0.0
52711 C 101.566 87.7928 48.2627 C 0.0 **** 0.0
52712 C 100.758 88.9115 48.9942 C 0.0 **** 0.0
52713 C 99.399 88.2949 49.2894 C 0.0 **** 0.0
52714 C 100.638 90.214 48.1212 C 0.0 **** 0.0
52715 C 101.858 90.6486 47.3894 C 0.0 **** 0.0
52716 C 102.58 89.4637 46.7185 C 0.0 **** 0.0
52717 C 102.895 88.3077 47.7256 C 0.0 **** 0.0
52718 C 100.988 83.568 49.2657 C 0.0 **** 0.0
52719 C 101.218 82.3224 50.139 C 0.0 **** 0.0
52720 C 102.759 85.5516 48.8972 C 0.0 **** 0.0
52721 C 102.161 84.1979 48.4067 C 0.0 **** 0.0
52722 C 103.641 87.158 47.0486 C 0.0 **** 0.0
52723 C 104.004 86.1267 48.1018 C 0.0 **** 0.0
52724 C 103.926 89.9569 46.1304 C 0.0 **** 0.0
52725 C 104.551 88.7691 45.3561 C 0.0 **** 0.0
52726 C 104.905 87.6568 46.3416 C 0.0 **** 0.0
52727 O 101.416 91.5427 46.3622 O 0.0 **** 0.0
52728 C 101.078 92.8289 46.9074 C 0.0 **** 0.0
52729 C 100.616 92.7901 48.4089 C 0.0 **** 0.0
52730 C 99.9226 91.4274 48.7861 C 0.0 **** 0.0
52731 C 99.7665 94.0317 48.8106 C 0.0 **** 0.0
52732 C 100.066 95.26 47.8954 C 0.0 **** 0.0
52733 C 99.5796 94.9373 46.4958 C 0.0 **** 0.0
52734 C 100.064 93.5152 45.9915 C 0.0 **** 0.0
52735 C 100.708 93.6231 44.5842 C 0.0 **** 0.0
52736 C 99.8036 94.4478 43.6228 C 0.0 **** 0.0
52737 C 99.3913 95.8041 44.2229 C 0.0 **** 0.0
52738 N 100.013 96.0151 45.5555 N 0.0 **** 0.0
52739 C 103.205 83.2763 47.8826 C 0.0 **** 0.0
52740 C 104.004 84.0322 46.8442 C 0.0 **** 0.0
52741 C 104.897 85.0038 47.5567 C 0.0 **** 0.0
52742 O 104.747 83.1345 45.9867 O 0.0 **** 0.0
52743 C 104.984 81.7964 46.4287 C 0.0 **** 0.0
52744 C 103.762 81.1836 47.2277 C 0.0 **** 0.0
52745 O 102.677 82.1029 47.3352 O 0.0 **** 0.0
52746 C 104.161 80.6002 48.6345 C 0.0 **** 0.0
52747 C 105.389 79.67 48.5026 C 0.0 **** 0.0
52748 C 106.61 80.3288 47.7553 C 0.0 **** 0.0
52749 C 106.28 81.768 47.1996 C 0.0 **** 0.0
52750 C 105.602 86.4811 45.6079 C 0.0 **** 0.0
52751 C 106.06 85.4845 46.6856 C 0.0 **** 0.0
52752 C 105.849 89.247 44.6798 C 0.0 **** 0.0
52753 C 106.49 88.0696 43.8463 C 0.0 **** 0.0
52754 C 106.858 86.9785 44.8553 C 0.0 **** 0.0
52755 C 105.636 90.4728 43.8203 C 0.0 **** 0.0
52756 C 105.186 91.612 44.7305 C 0.0 **** 0.0
52757 C 103.823 91.2237 45.275 C 0.0 **** 0.0
52758 O 107.591 88.4009 43.0114 O 0.0 **** 0.0
52759 C 107.129 89.4695 42.2023 C 0.0 **** 0.0
52760 C 106.938 90.721 43.1078 C 0.0 **** 0.0
52761 C 105.138 93.0022 44.1111 C 0.0 **** 0.0
52762 C 106.328 93.2356 43.1454 C 0.0 **** 0.0
52763 C 106.902 91.9993 42.3724 C 0.0 **** 0.0
52764 C 107.429 94.2594 43.5897 C 0.0 **** 0.0
52765 C 106.775 95.5777 44.1329 C 0.0 **** 0.0
52766 C 105.362 95.4475 44.7268 C 0.0 **** 0.0
52767 C 105.066 94.0577 45.241 C 0.0 **** 0.0
52768 C 108.141 92.1536 41.4647 C 0.0 **** 0.0
52769 C 108.927 90.8599 41.1662 C 0.0 **** 0.0
52770 C 108.003 89.649 40.892 C 0.0 **** 0.0
52771 C 108.377 94.528 42.3351 C 0.0 **** 0.0
52772 C 109.102 93.2548 41.9135 C 0.0 **** 0.0
52773 C 95.7564 84.916 57.929 C 0.0 **** 0.0
52774 C 96.5754 85.7583 56.9376 C 0.0 **** 0.0
52775 C 95.5431 85.6298 59.2579 C 0.0 **** 0.0
52776 O 99.8481 91.3028 50.1641 O 0.0 **** 0.0
52777 C 108.798 88.3823 40.4739 C 0.0 **** 0.0
52778 C 109.632 88.7152 39.2123 C 0.0 **** 0.0
52779 C 110.573 89.9404 39.4084 C 0.0 **** 0.0
52780 C 109.87 91.2074 40.0047 C 0.0 **** 0.0
52781 C 110.851 92.28 40.4043 C 0.0 **** 0.0
52782 C 112.037 92.4509 39.4798 C 0.0 **** 0.0
52783 C 112.095 91.6487 38.1586 C 0.0 **** 0.0
52784 C 111.275 90.3122 38.0702 C 0.0 **** 0.0
52785 C 111.9 92.5901 36.9538 C 0.0 **** 0.0
52786 C 112.646 93.9207 36.9999 C 0.0 **** 0.0
52787 C 113.632 93.9969 38.1786 C 0.0 **** 0.0
52788 C 112.841 93.7824 39.476 C 0.0 **** 0.0
52789 C 111.939 95.0091 39.7416 C 0.0 **** 0.0
52790 C 111.005 94.7776 40.9837 C 0.0 **** 0.0
52791 C 110.067 93.5635 40.7195 C 0.0 **** 0.0
52792 C 112.825 96.2639 39.8906 C 0.0 **** 0.0
52793 C 113.642 96.5219 38.5975 C 0.0 **** 0.0
52794 C 114.478 95.3017 38.2051 C 0.0 **** 0.0
52795 C 109.317 95.7468 42.5589 C 0.0 **** 0.0
52796 C 110.194 96.0257 41.3308 C 0.0 **** 0.0
52797 C 112.03 97.5188 40.3735 C 0.0 **** 0.0
52798 C 111.176 97.1734 41.6698 C 0.0 **** 0.0
52799 C 110.565 98.5276 42.1906 C 0.0 **** 0.0
52800 C 111.64 99.563 42.5584 C 0.0 **** 0.0
52801 C 112.398 99.9194 41.2807 C 0.0 **** 0.0
52802 C 112.949 98.6752 40.6159 C 0.0 **** 0.0
52803 O 114.13 98.6053 40.3057 O 0.0 **** 0.0
52804 H 94.6507 69.8517 54.7279 H 0.0 **** 0.0
52805 H 96.0323 69.8683 55.8445 H 0.0 **** 0.0
52806 H 93.587 70.8889 56.5864 H 0.0 **** 0.0
52807 H 95.1418 71.4378 57.2459 H 0.0 **** 0.0
52808 H 93.6426 72.7093 54.8855 H 0.0 **** 0.0
52809 H 95.2923 73.7035 54.1336 H 0.0 **** 0.0
52810 H 97.1362 72.1131 56.0463 H 0.0 **** 0.0
52811 H 97.4783 72.792 54.439 H 0.0 **** 0.0
52812 H 96.2562 74.5057 56.9567 H 0.0 **** 0.0
52813 H 95.2189 76.6937 56.5586 H 0.0 **** 0.0
52814 H 92.8239 75.4848 56.0963 H 0.0 **** 0.0
52815 H 93.627 75.6254 57.6491 H 0.0 **** 0.0
52816 H 92.5612 73.3004 56.738 H 0.0 **** 0.0
52817 H 94.0279 73.4496 57.8084 H 0.0 **** 0.0
52818 H 95.2081 76.8351 52.8575 H 0.0 **** 0.0
52819 H 96.6603 75.0742 53.2504 H 0.0 **** 0.0
52820 H 97.5708 76.3603 55.932 H 0.0 **** 0.0
52821 H 98.1859 74.7861 55.2942 H 0.0 **** 0.0
52822 H 96.0503 78.2587 55.4666 H 0.0 **** 0.0
52823 H 99.5676 77.6012 50.617 H 0.0 **** 0.0
52824 H 101.085 78.3636 51.3091 H 0.0 **** 0.0
52825 H 101.178 76.6256 53.0899 H 0.0 **** 0.0
52826 H 100.73 75.7673 51.5779 H 0.0 **** 0.0
52827 H 99.2875 74.8724 53.222 H 0.0 **** 0.0
52828 H 95.0914 80.6018 55.7793 H 0.0 **** 0.0
52829 H 92.3205 80.1043 52.2664 H 0.0 **** 0.0
52830 H 91.3211 79.2034 53.4652 H 0.0 **** 0.0
52831 H 93.3055 77.8449 53.1411 H 0.0 **** 0.0
52832 H 90.2224 81.5116 53.6592 H 0.0 **** 0.0
52833 H 90.4642 81.3688 55.3837 H 0.0 **** 0.0
52834 H 90.2917 83.6442 55.0904 H 0.0 **** 0.0
52835 H 91.2538 83.7249 53.5443 H 0.0 **** 0.0
52836 H 94.6741 82.2868 57.3239 H 0.0 **** 0.0
52837 H 95.5208 83.1326 56.0291 H 0.0 **** 0.0
52838 H 93.6838 84.2288 58.1703 H 0.0 **** 0.0
52839 H 94.1491 85.5544 55.4922 H 0.0 **** 0.0
52840 H 93.574 86.4532 56.9379 H 0.0 **** 0.0
52841 H 91.781 85.7418 55.5615 H 0.0 **** 0.0
52842 H 91.5989 84.882 57.1049 H 0.0 **** 0.0
52843 H 94.9254 83.3262 53.5757 H 0.0 **** 0.0
52844 H 97.4481 87.2949 50.8091 H 0.0 **** 0.0
52845 H 98.8072 89.0377 49.896 H 0.0 **** 0.0
52846 H 101.678 81.5291 49.4966 H 0.0 **** 0.0
52847 H 102.012 93.4188 46.92 H 0.0 **** 0.0
52848 H 101.562 92.7777 49.0357 H 0.0 **** 0.0
52849 H 98.9295 91.3543 48.2846 H 0.0 **** 0.0
52850 H 98.6729 93.818 48.7634 H 0.0 **** 0.0
52851 H 100.105 94.3306 49.8026 H 0.0 **** 0.0
52852 H 101.159 95.5244 47.9842 H 0.0 **** 0.0
52853 H 99.5417 96.1843 48.2692 H 0.0 **** 0.0
52854 H 98.4997 94.9415 46.518 H 0.0 **** 0.0
52855 H 99.1273 92.8741 45.9318 H 0.0 **** 0.0
52856 H 101.716 94.1561 44.648 H 0.0 **** 0.0
52857 H 100.842 92.5684 44.1638 H 0.0 **** 0.0
52858 H 98.9152 93.8392 43.3358 H 0.0 **** 0.0
52859 H 100.377 94.6609 42.6882 H 0.0 **** 0.0
52860 H 98.3067 95.8181 44.3813 H 0.0 **** 0.0
52861 H 99.6172 96.6663 43.6002 H 0.0 **** 0.0
52862 H 99.7114 97.0103 45.8856 H 0.0 **** 0.0
52863 H 105.102 81.1683 45.4846 H 0.0 **** 0.0
52864 H 103.383 80.3367 46.661 H 0.0 **** 0.0
52865 H 104.452 81.397 49.3785 H 0.0 **** 0.0
52866 H 103.376 79.9915 49.1389 H 0.0 **** 0.0
52867 H 105.055 78.7574 47.9418 H 0.0 **** 0.0
52868 H 105.646 79.2836 49.48 H 0.0 **** 0.0
52869 H 107.032 79.704 46.9387 H 0.0 **** 0.0
52870 H 107.443 80.488 48.518 H 0.0 **** 0.0
52871 H 107.084 82.0726 46.512 H 0.0 **** 0.0
52872 H 106.257 82.5122 48.0618 H 0.0 **** 0.0
52873 H 106.85 85.9259 47.2961 H 0.0 **** 0.0
52874 H 107.374 86.1496 44.3391 H 0.0 **** 0.0
52875 H 103.037 91.1711 44.4991 H 0.0 **** 0.0
52876 H 104.229 93.0527 43.5069 H 0.0 **** 0.0
52877 H 105.818 93.8516 42.3254 H 0.0 **** 0.0
52878 H 108.0 93.7837 44.3861 H 0.0 **** 0.0
52879 H 106.673 96.2707 43.2886 H 0.0 **** 0.0
52880 H 107.406 96.0393 44.8999 H 0.0 **** 0.0
52881 H 104.59 95.6408 43.9465 H 0.0 **** 0.0
52882 H 105.237 96.2647 45.5096 H 0.0 **** 0.0
52883 H 104.016 94.1226 45.5361 H 0.0 **** 0.0
52884 H 105.748 93.9164 46.1153 H 0.0 **** 0.0
52885 H 96.4413 84.0748 58.198 H 0.0 **** 0.0
52886 H 97.5822 85.8992 57.3656 H 0.0 **** 0.0
52887 H 96.1851 86.7476 56.6382 H 0.0 **** 0.0
52888 H 96.6916 85.2079 55.9794 H 0.0 **** 0.0
52889 H 94.7278 86.354 59.1757 H 0.0 **** 0.0
52890 H 96.4566 86.1417 59.6121 H 0.0 **** 0.0
52891 H 95.3363 84.8483 60.0387 H 0.0 **** 0.0
52892 H 98.9098 91.0882 50.4402 H 0.0 **** 0.0
52893 H 108.056 87.5754 40.2791 H 0.0 **** 0.0
52894 H 110.174 87.796 38.8663 H 0.0 **** 0.0
52895 H 111.901 89.4655 37.699 H 0.0 **** 0.0
52896 H 112.167 92.0455 36.0677 H 0.0 **** 0.0
52897 H 113.23 94.1076 36.1198 H 0.0 **** 0.0
52898 H 112.999 96.8552 37.7577 H 0.0 **** 0.0
52899 H 115.035 95.4436 37.2241 H 0.0 **** 0.0
52900 H 108.696 96.6431 42.6772 H 0.0 **** 0.0
52901 H 109.997 98.9389 41.3152 H 0.0 **** 0.0
52902 H 109.885 98.4052 43.0333 H 0.0 **** 0.0
52903 H 112.332 99.0907 43.2588 H 0.0 **** 0.0
52904 H 111.173 100.466 42.9924 H 0.0 **** 0.0
52905 H 113.178 100.722 41.4728 H 0.0 **** 0.0
52906 H 111.67 100.427 40.6075 H 0.0 **** 0.0
52907 C 72.997 21.788 44.9449 C 0.0 **** 0.0
52908 C 71.6055 22.31 44.5384 C 0.0 **** 0.0
52909 C 71.3358 22.1507 43.0389 C 0.0 **** 0.0
52910 C 72.4773 22.7729 42.1937 C 0.0 **** 0.0
52911 C 73.7807 22.9287 43.0438 C 0.0 **** 0.0
52912 O 73.9439 21.8098 43.9051 O 0.0 **** 0.0
52913 C 72.0139 24.1021 41.5396 C 0.0 **** 0.0
52914 C 70.9106 23.7437 40.5293 C 0.0 **** 0.0
52915 C 69.7727 22.8475 41.1675 C 0.0 **** 0.0
52916 C 69.8898 22.6539 42.686 C 0.0 **** 0.0
52917 O 71.4317 23.0578 39.3934 O 0.0 **** 0.0
52918 C 72.4906 23.7323 38.7042 C 0.0 **** 0.0
52919 C 73.646 24.1592 39.6443 C 0.0 **** 0.0
52920 C 73.101 24.9225 40.8526 C 0.0 **** 0.0
52921 C 74.6742 25.0113 38.9434 C 0.0 **** 0.0
52922 C 74.1755 26.1136 38.1531 C 0.0 **** 0.0
52923 C 73.0714 25.7029 37.1557 C 0.0 **** 0.0
52924 C 71.93 24.9094 37.8166 C 0.0 **** 0.0
52925 C 72.4611 26.9405 36.4662 C 0.0 **** 0.0
52926 C 73.525 27.8671 35.8521 C 0.0 **** 0.0
52927 C 74.6224 28.2045 36.8629 C 0.0 **** 0.0
52928 C 75.2651 26.9066 37.4123 C 0.0 **** 0.0
52929 C 76.5306 27.148 38.2702 C 0.0 **** 0.0
52930 C 77.103 25.8074 38.7468 C 0.0 **** 0.0
52931 C 76.0241 24.9265 39.3188 C 0.0 **** 0.0
52932 O 75.6095 29.1494 36.4274 O 0.0 **** 0.0
52933 C 75.4861 29.3801 35.055 C 0.0 **** 0.0
52934 C 74.1323 30.115 34.8622 C 0.0 **** 0.0
52935 C 72.967 29.1837 35.3009 C 0.0 **** 0.0
52936 C 70.9428 24.5303 36.6958 C 0.0 **** 0.0
52937 C 70.2578 25.7082 36.074 C 0.0 **** 0.0
52938 C 71.3731 26.6313 35.4446 C 0.0 **** 0.0
52939 C 69.2658 25.2229 35.0521 C 0.0 **** 0.0
52940 C 69.5919 24.2239 34.2341 C 0.0 **** 0.0
52941 C 70.5134 23.0897 34.7359 C 0.0 **** 0.0
52942 C 70.9575 23.2846 36.1415 C 0.0 **** 0.0
52943 C 68.8044 23.9622 32.967 C 0.0 **** 0.0
52944 C 68.1927 25.2438 32.401 C 0.0 **** 0.0
52945 C 67.5124 26.0344 33.498 C 0.0 **** 0.0
52946 C 68.0148 25.9943 34.7678 C 0.0 **** 0.0
52947 C 67.2486 26.5727 35.9218 C 0.0 **** 0.0
52948 C 65.7086 26.6736 35.6459 C 0.0 **** 0.0
52949 C 65.5878 27.51 34.3471 C 0.0 **** 0.0
52950 C 66.1818 26.7148 33.1848 C 0.0 **** 0.0
52951 C 71.8844 28.8741 34.2403 C 0.0 **** 0.0
52952 C 70.7844 27.9758 34.8749 C 0.0 **** 0.0
52953 C 73.9485 30.6865 33.4074 C 0.0 **** 0.0
52954 C 72.6549 31.4918 33.3675 C 0.0 **** 0.0
52955 S 71.1474 30.3794 33.5212 S 0.0 **** 0.0
52956 C 72.5744 32.3788 32.084 C 0.0 **** 0.0
52957 C 73.8597 33.2427 31.9987 C 0.0 **** 0.0
52958 C 75.1284 32.3922 31.9215 C 0.0 **** 0.0
52959 C 75.1814 31.5007 33.124 C 0.0 **** 0.0
52960 C 76.3267 33.3498 32.0686 C 0.0 **** 0.0
52961 C 76.355 34.5209 31.0505 C 0.0 **** 0.0
52962 C 75.0081 35.2876 31.0832 C 0.0 **** 0.0
52963 C 73.8267 34.3057 30.9099 C 0.0 **** 0.0
52964 C 74.9871 36.4829 30.0961 C 0.0 **** 0.0
52965 C 76.2601 37.3834 30.1497 C 0.0 **** 0.0
52966 C 77.5905 36.6539 30.385 C 0.0 **** 0.0
52967 C 77.48 35.5101 31.4589 C 0.0 **** 0.0
52968 C 76.4128 30.5524 33.0991 C 0.0 **** 0.0
52969 C 76.6818 30.1784 34.5365 C 0.0 **** 0.0
52970 C 77.6956 32.6921 32.3736 C 0.0 **** 0.0
52971 C 77.6377 31.1146 32.2993 C 0.0 **** 0.0
52972 C 78.857 34.7913 31.7748 C 0.0 **** 0.0
52973 C 78.8065 33.257 31.5147 C 0.0 **** 0.0
52974 C 78.7021 37.538 30.9449 C 0.0 **** 0.0
52975 C 80.0773 36.8608 30.8056 C 0.0 **** 0.0
52976 C 79.9627 35.3462 30.8752 C 0.0 **** 0.0
52977 O 76.3296 38.1781 29.0014 O 0.0 **** 0.0
52978 C 75.2427 39.1319 28.9964 C 0.0 **** 0.0
52979 C 74.2482 38.9939 30.2074 C 0.0 **** 0.0
52980 C 73.7512 37.4833 30.2422 C 0.0 **** 0.0
52981 C 73.1077 40.0453 30.142 C 0.0 **** 0.0
52982 C 73.121 40.9453 28.8858 C 0.0 **** 0.0
52983 C 73.2525 40.0932 27.6227 C 0.0 **** 0.0
52984 C 74.4321 39.0506 27.6777 C 0.0 **** 0.0
52985 C 75.3563 39.1426 26.4274 C 0.0 **** 0.0
52986 C 74.4627 39.1029 25.185 C 0.0 **** 0.0
52987 C 73.3027 40.2022 25.1828 C 0.0 **** 0.0
52988 N 73.3109 40.9601 26.4527 N 0.0 **** 0.0
52989 C 79.0264 30.5071 32.6235 C 0.0 **** 0.0
52990 C 80.0135 31.0294 31.6271 C 0.0 **** 0.0
52991 C 80.1533 32.583 31.807 C 0.0 **** 0.0
52992 O 81.2364 30.4301 31.7654 O 0.0 **** 0.0
52993 C 81.0733 29.0356 31.5188 C 0.0 **** 0.0
52994 C 80.2251 28.4636 32.6787 C 0.0 **** 0.0
52995 O 78.9476 29.0732 32.614 O 0.0 **** 0.0
52996 C 80.9472 28.6378 34.0651 C 0.0 **** 0.0
52997 C 82.4893 28.4168 33.9503 C 0.0 **** 0.0
52998 C 82.9665 27.682 32.7015 C 0.0 **** 0.0
52999 C 82.4006 28.3424 31.3737 C 0.0 **** 0.0
53000 C 81.3362 34.7296 31.1849 C 0.0 **** 0.0
53001 C 81.2763 33.1875 30.9638 C 0.0 **** 0.0
53002 C 80.717 37.1212 29.454 C 0.0 **** 0.0
53003 C 82.072 36.3459 29.2001 C 0.0 **** 0.0
53004 C 82.4792 35.4422 30.4087 C 0.0 **** 0.0
53005 C 80.7784 38.6 29.1379 C 0.0 **** 0.0
53006 C 79.3838 39.1811 29.0897 C 0.0 **** 0.0
53007 C 78.7434 39.0092 30.5039 C 0.0 **** 0.0
53008 O 83.0956 37.283 28.902 O 0.0 **** 0.0
53009 C 82.7393 37.8609 27.6555 C 0.0 **** 0.0
53010 C 81.4884 38.8291 27.803 C 0.0 **** 0.0
53011 C 79.2196 40.5677 28.331 C 0.0 **** 0.0
53012 C 80.4369 41.0387 27.4622 C 0.0 **** 0.0
53013 C 81.8002 40.3093 27.6987 C 0.0 **** 0.0
53014 C 80.6975 42.574 27.5282 C 0.0 **** 0.0
53015 C 79.4411 43.4267 27.4406 C 0.0 **** 0.0
53016 C 78.2702 42.9296 28.2948 C 0.0 **** 0.0
53017 C 78.6806 41.7453 29.2205 C 0.0 **** 0.0
53018 C 82.7114 40.6228 26.5695 C 0.0 **** 0.0
53019 C 84.0657 39.8886 26.7426 C 0.0 **** 0.0
53020 C 83.8704 38.3681 26.7934 C 0.0 **** 0.0
53021 C 81.6694 42.9648 26.3804 C 0.0 **** 0.0
53022 C 82.9436 42.1616 26.5151 C 0.0 **** 0.0
53023 C 64.9736 27.2884 36.8539 C 0.0 **** 0.0
53024 C 65.3859 28.7067 37.2187 C 0.0 **** 0.0
53025 C 63.4607 27.1975 36.6284 C 0.0 **** 0.0
53026 O 73.0596 37.2919 31.4406 O 0.0 **** 0.0
53027 C 85.1767 37.6563 27.1197 C 0.0 **** 0.0
53028 C 86.2376 37.9417 26.0392 C 0.0 **** 0.0
53029 C 86.394 39.4719 25.8644 C 0.0 **** 0.0
53030 C 85.0226 40.2217 25.6402 C 0.0 **** 0.0
53031 C 85.2219 41.7301 25.5798 C 0.0 **** 0.0
53032 C 86.2272 42.0576 24.4469 C 0.0 **** 0.0
53033 C 87.572 41.3292 24.6008 C 0.0 **** 0.0
53034 C 87.369 39.8262 24.7353 C 0.0 **** 0.0
53035 C 88.4641 41.62 23.4502 C 0.0 **** 0.0
53036 C 88.7758 43.11 23.3663 C 0.0 **** 0.0
53037 C 87.4996 43.953 23.3208 C 0.0 **** 0.0
53038 C 86.542 43.5856 24.4618 C 0.0 **** 0.0
53039 C 85.2897 44.4203 24.2806 C 0.0 **** 0.0
53040 C 84.2201 44.0837 25.3343 C 0.0 **** 0.0
53041 C 83.9383 42.5361 25.3975 C 0.0 **** 0.0
53042 C 85.6723 45.9302 24.3791 C 0.0 **** 0.0
53043 C 86.6063 46.2155 23.1978 C 0.0 **** 0.0
53044 C 87.8929 45.4337 23.4064 C 0.0 **** 0.0
53045 C 82.0271 44.4884 26.3859 C 0.0 **** 0.0
53046 C 82.909 44.8871 25.191 C 0.0 **** 0.0
53047 C 84.4378 46.8037 24.2243 C 0.0 **** 0.0
53048 C 83.222 46.4146 25.1685 C 0.0 **** 0.0
53049 C 81.9577 47.2901 24.8124 C 0.0 **** 0.0
53050 C 82.3173 48.4239 23.8162 C 0.0 **** 0.0
53051 C 83.5344 49.2394 24.1647 C 0.0 **** 0.0
53052 C 84.7052 48.3036 24.3649 C 0.0 **** 0.0
53053 O 85.7777 48.7332 24.7377 O 0.0 **** 0.0
53054 H 72.8705 20.7132 45.2759 H 0.0 **** 0.0
53055 H 73.3649 22.3814 45.7997 H 0.0 **** 0.0
53056 H 70.8293 21.8271 45.1643 H 0.0 **** 0.0
53057 H 71.4654 23.4061 44.8114 H 0.0 **** 0.0
53058 H 71.2941 21.0708 42.8115 H 0.0 **** 0.0
53059 H 72.6956 22.0281 41.3456 H 0.0 **** 0.0
53060 H 73.7451 23.8511 43.6645 H 0.0 **** 0.0
53061 H 74.6679 22.9781 42.3995 H 0.0 **** 0.0
53062 H 71.552 24.7698 42.3488 H 0.0 **** 0.0
53063 H 70.3939 24.7178 40.2144 H 0.0 **** 0.0
53064 H 69.7894 21.8454 40.6986 H 0.0 **** 0.0
53065 H 68.791 23.3327 40.9483 H 0.0 **** 0.0
53066 H 69.1345 21.9449 43.053 H 0.0 **** 0.0
53067 H 69.642 23.5712 43.2785 H 0.0 **** 0.0
53068 H 72.9287 22.9571 38.0551 H 0.0 **** 0.0
53069 H 74.1666 23.2132 39.9616 H 0.0 **** 0.0
53070 H 72.7047 25.8893 40.5074 H 0.0 **** 0.0
53071 H 73.9399 25.1294 41.6113 H 0.0 **** 0.0
53072 H 71.3911 25.5531 38.5194 H 0.0 **** 0.0
53073 H 77.2979 27.6401 37.6639 H 0.0 **** 0.0
53074 H 76.3048 27.8072 39.1567 H 0.0 **** 0.0
53075 H 77.8378 26.0255 39.5478 H 0.0 **** 0.0
53076 H 77.6043 25.2644 37.9291 H 0.0 **** 0.0
53077 H 76.3088 24.144 40.0157 H 0.0 **** 0.0
53078 H 69.7141 26.2137 36.9203 H 0.0 **** 0.0
53079 H 71.428 23.0551 34.1008 H 0.0 **** 0.0
53080 H 70.0191 22.1153 34.6493 H 0.0 **** 0.0
53081 H 71.4632 22.4031 36.5757 H 0.0 **** 0.0
53082 H 69.5019 23.5823 32.2041 H 0.0 **** 0.0
53083 H 68.0141 23.1885 33.1234 H 0.0 **** 0.0
53084 H 67.4854 25.0358 31.5599 H 0.0 **** 0.0
53085 H 68.9925 25.8316 31.9197 H 0.0 **** 0.0
53086 H 67.3829 25.9065 36.7919 H 0.0 **** 0.0
53087 H 67.662 27.5818 36.1227 H 0.0 **** 0.0
53088 H 65.3065 25.6284 35.5626 H 0.0 **** 0.0
53089 H 66.1223 28.5388 34.386 H 0.0 **** 0.0
53090 H 64.5126 27.7265 34.1935 H 0.0 **** 0.0
53091 H 66.3373 27.4106 32.3628 H 0.0 **** 0.0
53092 H 65.4326 25.99 32.8335 H 0.0 **** 0.0
53093 H 70.0697 27.766 34.0699 H 0.0 **** 0.0
53094 H 71.6648 33.0456 32.2912 H 0.0 **** 0.0
53095 H 72.8393 34.8505 30.8867 H 0.0 **** 0.0
53096 H 77.6431 29.6219 34.7683 H 0.0 **** 0.0
53097 H 75.6475 40.1242 29.1209 H 0.0 **** 0.0
53098 H 74.782 39.2261 31.1321 H 0.0 **** 0.0
53099 H 73.1172 37.2315 29.3502 H 0.0 **** 0.0
53100 H 72.1511 39.5326 30.1819 H 0.0 **** 0.0
53101 H 73.1881 40.7462 30.9969 H 0.0 **** 0.0
53102 H 73.9707 41.6593 28.903 H 0.0 **** 0.0
53103 H 72.1597 41.5241 28.858 H 0.0 **** 0.0
53104 H 72.308 39.4739 27.5889 H 0.0 **** 0.0
53105 H 73.9651 38.0693 27.5992 H 0.0 **** 0.0
53106 H 75.9805 40.0397 26.4348 H 0.0 **** 0.0
53107 H 76.0512 38.2696 26.3857 H 0.0 **** 0.0
53108 H 73.9974 38.1018 25.0083 H 0.0 **** 0.0
53109 H 75.0951 39.3049 24.3274 H 0.0 **** 0.0
53110 H 72.3119 39.7002 25.0652 H 0.0 **** 0.0
53111 H 73.4204 40.8392 24.2818 H 0.0 **** 0.0
53112 H 74.151 41.5958 26.4536 H 0.0 **** 0.0
53113 H 80.5354 28.9037 30.5577 H 0.0 **** 0.0
53114 H 80.0887 27.3401 32.5113 H 0.0 **** 0.0
53115 H 80.7772 29.6051 34.4319 H 0.0 **** 0.0
53116 H 80.4784 27.9261 34.7998 H 0.0 **** 0.0
53117 H 82.7858 27.8072 34.8421 H 0.0 **** 0.0
53118 H 83.0269 29.4439 33.9825 H 0.0 **** 0.0
53119 H 82.6112 26.6533 32.7292 H 0.0 **** 0.0
53120 H 84.0621 27.6355 32.7111 H 0.0 **** 0.0
53121 H 82.3427 27.5911 30.5755 H 0.0 **** 0.0
53122 H 83.1258 29.1042 30.9935 H 0.0 **** 0.0
53123 H 82.2342 32.7941 31.2545 H 0.0 **** 0.0
53124 H 83.3531 34.8147 30.2377 H 0.0 **** 0.0
53125 H 77.734 39.4572 30.6188 H 0.0 **** 0.0
53126 H 78.4135 40.3238 27.6422 H 0.0 **** 0.0
53127 H 80.1554 40.8068 26.404 H 0.0 **** 0.0
53128 H 81.2086 42.8789 28.493 H 0.0 **** 0.0
53129 H 79.0959 43.4747 26.3974 H 0.0 **** 0.0
53130 H 79.6733 44.4379 27.7637 H 0.0 **** 0.0
53131 H 77.4525 42.6008 27.5633 H 0.0 **** 0.0
53132 H 77.8149 43.748 28.8853 H 0.0 **** 0.0
53133 H 77.7392 41.3978 29.7353 H 0.0 **** 0.0
53134 H 79.462 41.9944 29.9715 H 0.0 **** 0.0
53135 H 65.247 26.6528 37.6952 H 0.0 **** 0.0
53136 H 64.7416 29.1779 38.0165 H 0.0 **** 0.0
53137 H 65.3836 29.4581 36.3811 H 0.0 **** 0.0
53138 H 66.4525 28.7125 37.546 H 0.0 **** 0.0
53139 H 63.1595 26.2328 36.1431 H 0.0 **** 0.0
53140 H 63.0568 28.0487 36.0581 H 0.0 **** 0.0
53141 H 62.9617 27.2983 37.6077 H 0.0 **** 0.0
53142 H 72.1143 37.2239 31.2605 H 0.0 **** 0.0
53143 H 85.0469 36.566 27.1364 H 0.0 **** 0.0
53144 H 87.213 37.4907 26.3413 H 0.0 **** 0.0
53145 H 88.3292 39.32 24.9849 H 0.0 **** 0.0
53146 H 89.3746 40.9861 23.5528 H 0.0 **** 0.0
53147 H 89.4918 43.3604 22.5252 H 0.0 **** 0.0
53148 H 86.8976 47.2855 23.1054 H 0.0 **** 0.0
53149 H 88.618 45.6544 22.5927 H 0.0 **** 0.0
53150 H 81.097 45.1254 26.3006 H 0.0 **** 0.0
53151 H 81.2278 46.6728 24.2653 H 0.0 **** 0.0
53152 H 81.5253 47.6726 25.7314 H 0.0 **** 0.0
53153 H 81.5119 49.1432 23.7416 H 0.0 **** 0.0
53154 H 82.4175 47.9902 22.825 H 0.0 **** 0.0
53155 H 83.4042 49.7653 25.1463 H 0.0 **** 0.0
53156 H 83.7812 49.9861 23.3639 H 0.0 **** 0.0
53157 C 2.64952 44.2871 15.7268 C 0.0 **** 0.0
53158 C 3.98495 43.6551 15.3836 C 0.0 **** 0.0
53159 C 4.64554 42.9586 16.5847 C 0.0 **** 0.0
53160 C 4.49079 43.7942 17.8637 C 0.0 **** 0.0
53161 C 3.07325 44.4247 17.9929 C 0.0 **** 0.0
53162 O 2.15649 43.9834 17.0209 O 0.0 **** 0.0
53163 C 5.66502 44.8414 18.1279 C 0.0 **** 0.0
53164 C 7.06633 44.2982 17.6975 C 0.0 **** 0.0
53165 C 7.07678 42.8054 17.4072 C 0.0 **** 0.0
53166 C 6.08809 42.4477 16.2973 C 0.0 **** 0.0
53167 O 8.19164 44.5165 18.5243 O 0.0 **** 0.0
53168 C 8.11673 45.7224 19.2807 C 0.0 **** 0.0
53169 C 6.93996 45.6502 20.2615 C 0.0 **** 0.0
53170 C 5.59297 45.3492 19.5918 C 0.0 **** 0.0
53171 C 6.88086 46.9397 21.0498 C 0.0 **** 0.0
53172 C 6.95959 48.1954 20.3369 C 0.0 **** 0.0
53173 C 8.217 48.2831 19.4372 C 0.0 **** 0.0
53174 C 8.30971 47.0702 18.4951 C 0.0 **** 0.0
53175 C 8.09061 49.4821 18.5426 C 0.0 **** 0.0
53176 C 7.65618 50.7843 19.2248 C 0.0 **** 0.0
53177 C 6.4746 50.6116 20.1903 C 0.0 **** 0.0
53178 C 6.88915 49.4875 21.1407 C 0.0 **** 0.0
53179 C 6.02224 49.3107 22.4153 C 0.0 **** 0.0
53180 C 6.61516 48.1788 23.2584 C 0.0 **** 0.0
53181 C 6.70563 46.8816 22.4663 C 0.0 **** 0.0
53182 O 6.06174 51.8051 20.7984 O 0.0 **** 0.0
53183 C 7.1257 52.3714 21.5261 C 0.0 **** 0.0
53184 C 8.26521 52.886 20.5911 C 0.0 **** 0.0
53185 C 8.74909 51.8547 19.5532 C 0.0 **** 0.0
53186 C 9.56569 47.2289 17.6605 C 0.0 **** 0.0
53187 C 9.69509 48.5318 16.8616 C 0.0 **** 0.0
53188 C 9.34127 49.7301 17.7637 C 0.0 **** 0.0
53189 C 11.0145 48.8108 16.1178 C 0.0 **** 0.0
53190 C 11.9386 47.8137 16.1026 C 0.0 **** 0.0
53191 C 11.5981 46.3961 16.5005 C 0.0 **** 0.0
53192 C 10.5032 46.2729 17.5261 C 0.0 **** 0.0
53193 C 13.3485 48.059 15.5101 C 0.0 **** 0.0
53194 C 13.6756 49.5714 15.377 C 0.0 **** 0.0
53195 C 12.4522 50.2446 14.7791 C 0.0 **** 0.0
53196 C 11.2271 50.0665 15.3129 C 0.0 **** 0.0
53197 C 10.0531 50.934 14.8803 C 0.0 **** 0.0
53198 C 10.147 51.3952 13.416 C 0.0 **** 0.0
53199 C 11.5671 52.017 13.184 C 0.0 **** 0.0
53200 C 12.6065 50.965 13.4436 C 0.0 **** 0.0
53201 C 10.0663 51.1299 19.8376 C 0.0 **** 0.0
53202 C 10.4439 50.0656 18.7616 C 0.0 **** 0.0
53203 C 9.3958 53.4899 21.3435 C 0.0 **** 0.0
53204 C 10.5862 53.7774 20.3654 C 0.0 **** 0.0
53205 S 11.5313 52.2231 20.0387 S 0.0 **** 0.0
53206 C 11.5534 54.8557 20.8312 C 0.0 **** 0.0
53207 C 10.9413 56.0562 21.5375 C 0.0 **** 0.0
53208 C 9.89747 55.6488 22.5624 C 0.0 **** 0.0
53209 C 8.85192 54.7395 21.9681 C 0.0 **** 0.0
53210 C 9.22958 56.963 23.0844 C 0.0 **** 0.0
53211 C 10.3111 57.8914 23.7347 C 0.0 **** 0.0
53212 C 11.3969 58.1976 22.6581 C 0.0 **** 0.0
53213 C 11.9954 56.8376 22.3205 C 0.0 **** 0.0
53214 C 12.4772 59.2338 23.1763 C 0.0 **** 0.0
53215 C 11.8767 60.4709 23.8054 C 0.0 **** 0.0
53216 C 10.8246 60.0888 24.864 C 0.0 **** 0.0
53217 C 9.72396 59.1871 24.2345 C 0.0 **** 0.0
53218 C 7.82773 54.1942 23.0432 C 0.0 **** 0.0
53219 C 6.62504 53.5234 22.3786 C 0.0 **** 0.0
53220 C 8.01691 56.7098 24.0154 C 0.0 **** 0.0
53221 C 7.54149 55.2213 24.17 C 0.0 **** 0.0
53222 C 8.43807 58.9741 25.0921 C 0.0 **** 0.0
53223 C 8.05704 57.4788 25.3027 C 0.0 **** 0.0
53224 C 10.4101 61.2204 25.8763 C 0.0 **** 0.0
53225 C 8.887 61.2568 26.1523 C 0.0 **** 0.0
53226 C 8.38978 59.8294 26.3701 C 0.0 **** 0.0
53227 O 12.9842 61.1978 24.3606 O 0.0 **** 0.0
53228 C 13.534 61.9953 23.3516 C 0.0 **** 0.0
53229 C 13.7475 61.175 22.0133 C 0.0 **** 0.0
53230 C 13.5832 59.636 22.2054 C 0.0 **** 0.0
53231 C 15.1004 61.5104 21.3236 C 0.0 **** 0.0
53232 C 15.2827 63.0228 21.3507 C 0.0 **** 0.0
53233 C 15.5986 63.4649 22.7739 C 0.0 **** 0.0
53234 C 14.8169 62.6814 23.8988 C 0.0 **** 0.0
53235 C 14.5857 63.5738 25.1339 C 0.0 **** 0.0
53236 C 15.8097 64.5204 25.3941 C 0.0 **** 0.0
53237 C 16.1186 65.3965 24.1781 C 0.0 **** 0.0
53238 N 15.4187 64.9283 22.952 N 0.0 **** 0.0
53239 C 6.35211 54.9424 25.1396 C 0.0 **** 0.0
53240 C 6.32254 55.9589 26.3237 C 0.0 **** 0.0
53241 C 6.61146 57.4086 25.9157 C 0.0 **** 0.0
53242 O 5.20653 55.7738 27.1541 O 0.0 **** 0.0
53243 C 5.3687 54.5136 27.7667 C 0.0 **** 0.0
53244 C 5.40127 53.3624 26.6901 C 0.0 **** 0.0
53245 O 6.38572 53.6329 25.692 O 0.0 **** 0.0
53246 C 4.02709 53.0828 26.0343 C 0.0 **** 0.0
53247 C 2.81933 53.6752 26.7752 C 0.0 **** 0.0
53248 C 2.9297 53.6403 28.3052 C 0.0 **** 0.0
53249 C 4.22494 54.2593 28.8408 C 0.0 **** 0.0
53250 C 6.89813 59.7953 26.7763 C 0.0 **** 0.0
53251 C 6.39595 58.384 27.0674 C 0.0 **** 0.0
53252 C 8.65627 62.0578 27.4093 C 0.0 **** 0.0
53253 C 7.20831 62.1024 27.9291 C 0.0 **** 0.0
53254 C 6.74032 60.6482 28.0817 C 0.0 **** 0.0
53255 C 9.2868 63.4407 27.3738 C 0.0 **** 0.0
53256 C 10.7556 63.4756 26.9154 C 0.0 **** 0.0
53257 C 10.9523 62.6451 25.6333 C 0.0 **** 0.0
53258 O 7.00969 62.9069 29.0846 O 0.0 **** 0.0
53259 C 8.20889 63.3402 29.7199 C 0.0 **** 0.0
53260 C 9.00577 64.2221 28.6955 C 0.0 **** 0.0
53261 C 11.3449 64.938 26.9985 C 0.0 **** 0.0
53262 C 11.2844 65.4944 28.4572 C 0.0 **** 0.0
53263 C 10.25 64.7865 29.3745 C 0.0 **** 0.0
53264 C 11.1324 67.0439 28.5356 C 0.0 **** 0.0
53265 C 11.9613 67.8024 27.4661 C 0.0 **** 0.0
53266 C 11.547 67.2796 26.03 C 0.0 **** 0.0
53267 C 10.7531 65.9244 26.0278 C 0.0 **** 0.0
53268 C 9.7269 65.6969 30.5294 C 0.0 **** 0.0
53269 C 9.04251 64.8638 31.5972 C 0.0 **** 0.0
53270 C 7.84901 64.13 30.9642 C 0.0 **** 0.0
53271 C 11.5794 67.4039 29.9611 C 0.0 **** 0.0
53272 C 10.8091 66.649 31.0884 C 0.0 **** 0.0
53273 C 8.95037 52.3355 13.0613 C 0.0 **** 0.0
53274 C 9.15018 53.74 13.6745 C 0.0 **** 0.0
53275 C 8.87247 52.4782 11.506 C 0.0 **** 0.0
53276 O 13.4346 59.109 20.9355 O 0.0 **** 0.0
53277 C 7.16011 63.2902 31.9966 C 0.0 **** 0.0
53278 C 6.66123 64.1724 33.1449 C 0.0 **** 0.0
53279 C 7.75105 64.9923 33.7688 C 0.0 **** 0.0
53280 C 8.49202 65.7892 32.6849 C 0.0 **** 0.0
53281 C 9.58224 66.7014 33.2475 C 0.0 **** 0.0
53282 C 9.05158 67.5901 34.3658 C 0.0 **** 0.0
53283 C 8.0957 66.9287 35.4064 C 0.0 **** 0.0
53284 C 7.08928 65.9126 34.8224 C 0.0 **** 0.0
53285 C 8.70926 66.524 36.7322 C 0.0 **** 0.0
53286 C 9.5508 67.6517 37.3016 C 0.0 **** 0.0
53287 C 10.6785 67.9692 36.361 C 0.0 **** 0.0
53288 C 10.1814 68.4771 35.0052 C 0.0 **** 0.0
53289 C 11.4141 68.6022 34.105 C 0.0 **** 0.0
53290 C 11.0429 68.7818 32.6461 C 0.0 **** 0.0
53291 C 10.1286 67.5942 32.1151 C 0.0 **** 0.0
53292 C 12.3055 69.7583 34.5826 C 0.0 **** 0.0
53293 C 12.0005 70.1689 36.0272 C 0.0 **** 0.0
53294 C 11.7911 68.9142 36.9164 C 0.0 **** 0.0
53295 C 11.968 68.8218 30.3286 C 0.0 **** 0.0
53296 C 12.252 68.9803 31.8337 C 0.0 **** 0.0
53297 C 12.501 70.851 33.5428 C 0.0 **** 0.0
53298 C 12.9208 70.3407 32.1218 C 0.0 **** 0.0
53299 C 14.4559 70.3001 31.9026 C 0.0 **** 0.0
53300 C 15.3014 70.3915 33.1366 C 0.0 **** 0.0
53301 C 14.9567 71.6271 34.0204 C 0.0 **** 0.0
53302 C 13.4604 71.8841 34.0388 C 0.0 **** 0.0
53303 O 13.0133 72.947 34.4589 O 0.0 **** 0.0
53304 H 1.86495 43.889 14.98 H 0.0 **** 0.0
53305 H 2.70486 45.382 15.5917 H 0.0 **** 0.0
53306 H 3.87477 42.8952 14.564 H 0.0 **** 0.0
53307 H 4.62543 44.4784 15.0128 H 0.0 **** 0.0
53308 H 4.01862 42.0352 16.6945 H 0.0 **** 0.0
53309 H 4.4674 43.0678 18.7169 H 0.0 **** 0.0
53310 H 3.12375 45.5036 17.8961 H 0.0 **** 0.0
53311 H 2.64842 44.2137 18.9767 H 0.0 **** 0.0
53312 H 5.41231 45.7189 17.4808 H 0.0 **** 0.0
53313 H 7.28199 44.8202 16.7046 H 0.0 **** 0.0
53314 H 6.82647 42.2115 18.3127 H 0.0 **** 0.0
53315 H 8.12426 42.4537 17.127 H 0.0 **** 0.0
53316 H 6.14267 41.3264 16.1111 H 0.0 **** 0.0
53317 H 6.43837 42.8937 15.3393 H 0.0 **** 0.0
53318 H 9.01199 45.6586 19.9147 H 0.0 **** 0.0
53319 H 7.12814 44.7707 20.929 H 0.0 **** 0.0
53320 H 4.98037 46.2464 19.5257 H 0.0 **** 0.0
53321 H 5.03143 44.6729 20.2538 H 0.0 **** 0.0
53322 H 7.46964 47.1276 17.7512 H 0.0 **** 0.0
53323 H 6.02763 50.2259 23.036 H 0.0 **** 0.0
53324 H 5.02147 49.0965 22.1053 H 0.0 **** 0.0
53325 H 6.06217 48.0738 24.2318 H 0.0 **** 0.0
53326 H 7.5801 48.513 23.5207 H 0.0 **** 0.0
53327 H 6.80876 45.9625 23.0365 H 0.0 **** 0.0
53328 H 8.89599 48.4796 16.0961 H 0.0 **** 0.0
53329 H 12.4739 45.9546 16.949 H 0.0 **** 0.0
53330 H 11.3821 45.7852 15.6493 H 0.0 **** 0.0
53331 H 10.5299 45.3624 18.057 H 0.0 **** 0.0
53332 H 14.114 47.5911 16.1227 H 0.0 **** 0.0
53333 H 13.3788 47.5126 14.5262 H 0.0 **** 0.0
53334 H 14.5845 49.6818 14.7715 H 0.0 **** 0.0
53335 H 13.849 49.9654 16.4074 H 0.0 **** 0.0
53336 H 9.16488 50.3733 15.0206 H 0.0 **** 0.0
53337 H 10.0441 51.7982 15.5698 H 0.0 **** 0.0
53338 H 10.0226 50.4986 12.7887 H 0.0 **** 0.0
53339 H 11.762 52.7897 13.9299 H 0.0 **** 0.0
53340 H 11.6989 52.3913 12.1633 H 0.0 **** 0.0
53341 H 13.5989 51.3937 13.3762 H 0.0 **** 0.0
53342 H 12.5709 50.1988 12.6293 H 0.0 **** 0.0
53343 H 10.7557 49.199 19.3062 H 0.0 **** 0.0
53344 H 12.1584 55.1972 19.9224 H 0.0 **** 0.0
53345 H 13.0107 56.818 21.8923 H 0.0 **** 0.0
53346 H 6.00633 53.0792 23.1719 H 0.0 **** 0.0
53347 H 12.8226 62.802 23.1011 H 0.0 **** 0.0
53348 H 12.8992 61.4564 21.3137 H 0.0 **** 0.0
53349 H 14.5452 59.3079 22.6531 H 0.0 **** 0.0
53350 H 15.936 60.9491 21.7772 H 0.0 **** 0.0
53351 H 14.9805 61.2349 20.2545 H 0.0 **** 0.0
53352 H 14.3468 63.5123 20.9738 H 0.0 **** 0.0
53353 H 16.1129 63.3603 20.6791 H 0.0 **** 0.0
53354 H 16.654 63.2563 22.9389 H 0.0 **** 0.0
53355 H 15.4868 61.882 24.2011 H 0.0 **** 0.0
53356 H 13.6842 64.1539 24.977 H 0.0 **** 0.0
53357 H 14.437 62.9636 26.0994 H 0.0 **** 0.0
53358 H 16.6977 63.9088 25.6354 H 0.0 **** 0.0
53359 H 15.6222 65.1533 26.2729 H 0.0 **** 0.0
53360 H 17.2486 65.4479 24.0448 H 0.0 **** 0.0
53361 H 15.7814 66.4274 24.3374 H 0.0 **** 0.0
53362 H 14.3985 65.1595 23.1048 H 0.0 **** 0.0
53363 H 6.34176 54.5213 28.3383 H 0.0 **** 0.0
53364 H 5.68917 52.4424 27.1679 H 0.0 **** 0.0
53365 H 3.97666 53.4489 24.9732 H 0.0 **** 0.0
53366 H 3.8741 51.995 25.9883 H 0.0 **** 0.0
53367 H 1.92833 53.0032 26.5084 H 0.0 **** 0.0
53368 H 2.66007 54.707 26.404 H 0.0 **** 0.0
53369 H 2.91691 52.5725 28.6685 H 0.0 **** 0.0
53370 H 2.02402 54.1555 28.7577 H 0.0 **** 0.0
53371 H 4.61125 53.6515 29.6811 H 0.0 **** 0.0
53372 H 3.94413 55.262 29.3355 H 0.0 **** 0.0
53373 H 5.29669 58.3894 27.3315 H 0.0 **** 0.0
53374 H 5.73513 60.5889 28.4949 H 0.0 **** 0.0
53375 H 10.4823 63.0856 24.7205 H 0.0 **** 0.0
53376 H 12.4118 64.7937 26.7447 H 0.0 **** 0.0
53377 H 12.3066 65.2438 28.8878 H 0.0 **** 0.0
53378 H 10.0564 67.2993 28.3969 H 0.0 **** 0.0
53379 H 13.045 67.5676 27.6317 H 0.0 **** 0.0
53380 H 11.8229 68.8967 27.5042 H 0.0 **** 0.0
53381 H 12.5069 67.2282 25.4462 H 0.0 **** 0.0
53382 H 10.9256 68.0862 25.48 H 0.0 **** 0.0
53383 H 10.8851 65.5532 24.9759 H 0.0 **** 0.0
53384 H 9.7007 66.0788 26.2447 H 0.0 **** 0.0
53385 H 7.98557 51.9278 13.334 H 0.0 **** 0.0
53386 H 9.12288 53.7163 14.7741 H 0.0 **** 0.0
53387 H 8.36327 54.4025 13.3168 H 0.0 **** 0.0
53388 H 10.1382 54.2365 13.3752 H 0.0 **** 0.0
53389 H 8.93761 51.4806 11.0037 H 0.0 **** 0.0
53390 H 9.65407 53.2354 11.137 H 0.0 **** 0.0
53391 H 7.88855 52.9406 11.2789 H 0.0 **** 0.0
53392 H 14.094 58.4119 20.8086 H 0.0 **** 0.0
53393 H 6.239 62.9115 31.4674 H 0.0 **** 0.0
53394 H 5.78979 64.8491 32.8382 H 0.0 **** 0.0
53395 H 6.32304 66.5748 34.3285 H 0.0 **** 0.0
53396 H 7.86984 66.3218 37.4165 H 0.0 **** 0.0
53397 H 9.8672 67.3223 38.329 H 0.0 **** 0.0
53398 H 12.783 70.8088 36.5371 H 0.0 **** 0.0
53399 H 12.773 68.4048 36.9985 H 0.0 **** 0.0
53400 H 12.8057 69.1889 29.7026 H 0.0 **** 0.0
53401 H 14.7091 69.3587 31.4043 H 0.0 **** 0.0
53402 H 14.6955 71.1794 31.2744 H 0.0 **** 0.0
53403 H 16.3263 70.4113 32.842 H 0.0 **** 0.0
53404 H 15.1771 69.4709 33.7388 H 0.0 **** 0.0
53405 H 15.4291 72.4947 33.517 H 0.0 **** 0.0
53406 H 15.397 71.5294 35.0407 H 0.0 **** 0.0
53407 C 44.7625 106.232 45.9545 C 0.0 **** 0.0
53408 C 45.1194 107.678 46.2019 C 0.0 **** 0.0
53409 C 45.9788 108.245 45.0389 C 0.0 **** 0.0
53410 C 47.1575 107.338 44.7007 C 0.0 **** 0.0
53411 C 46.6543 105.907 44.6869 C 0.0 **** 0.0
53412 O 45.2393 105.783 44.711 O 0.0 **** 0.0
53413 C 48.416 107.532 45.666 C 0.0 **** 0.0
53414 C 48.6159 108.982 46.1494 C 0.0 **** 0.0
53415 C 47.898 110.005 45.2401 C 0.0 **** 0.0
53416 C 46.3428 109.737 45.1702 C 0.0 **** 0.0
53417 O 49.9579 109.46 46.2998 O 0.0 **** 0.0
53418 C 50.9382 108.496 46.6706 C 0.0 **** 0.0
53419 C 50.9998 107.381 45.6576 C 0.0 **** 0.0
53420 C 49.6763 107.126 44.8641 C 0.0 **** 0.0
53421 C 51.6534 106.101 46.1373 C 0.0 **** 0.0
53422 C 51.4768 105.709 47.5673 C 0.0 **** 0.0
53423 C 51.6988 106.927 48.4733 C 0.0 **** 0.0
53424 C 50.7462 108.053 48.1603 C 0.0 **** 0.0
53425 C 51.5793 106.506 49.9567 C 0.0 **** 0.0
53426 C 52.4701 105.292 50.2251 C 0.0 **** 0.0
53427 C 52.1329 104.097 49.3237 C 0.0 **** 0.0
53428 C 52.3747 104.546 47.914 C 0.0 **** 0.0
53429 C 52.1248 103.459 46.9353 C 0.0 **** 0.0
53430 C 52.6294 103.825 45.5662 C 0.0 **** 0.0
53431 C 52.2799 105.256 45.2236 C 0.0 **** 0.0
53432 O 52.967 103.056 49.6704 O 0.0 **** 0.0
53433 C 52.3651 102.527 50.8148 C 0.0 **** 0.0
53434 C 52.6776 103.444 52.0164 C 0.0 **** 0.0
53435 C 52.2898 104.908 51.6808 C 0.0 **** 0.0
53436 C 50.8984 109.164 49.2101 C 0.0 **** 0.0
53437 C 50.9019 108.791 50.6841 C 0.0 **** 0.0
53438 C 51.963 107.672 50.8509 C 0.0 **** 0.0
53439 C 51.1078 109.947 51.6452 C 0.0 **** 0.0
53440 C 51.7186 111.076 51.2049 C 0.0 **** 0.0
53441 C 52.067 111.26 49.7397 C 0.0 **** 0.0
53442 C 51.205 110.395 48.8449 C 0.0 **** 0.0
53443 C 52.0148 112.229 52.1459 C 0.0 **** 0.0
53444 C 52.2523 111.774 53.5455 C 0.0 **** 0.0
53445 C 51.0714 110.896 53.9453 C 0.0 **** 0.0
53446 C 50.5448 109.975 53.0577 C 0.0 **** 0.0
53447 C 49.3726 109.082 53.5134 C 0.0 **** 0.0
53448 C 48.6449 109.616 54.7589 C 0.0 **** 0.0
53449 C 49.7146 109.899 55.8272 C 0.0 **** 0.0
53450 C 50.5705 111.088 55.3474 C 0.0 **** 0.0
53451 C 53.0552 106.033 52.4243 C 0.0 **** 0.0
53452 C 52.2199 107.282 52.3172 C 0.0 **** 0.0
53453 C 54.1644 103.387 52.3977 C 0.0 **** 0.0
53454 C 54.4 104.08 53.7991 C 0.0 **** 0.0
53455 S 53.549 105.693 54.1141 S 0.0 **** 0.0
53456 C 55.9363 104.142 53.9647 C 0.0 **** 0.0
53457 C 56.4409 102.7 54.0658 C 0.0 **** 0.0
53458 C 56.1377 101.865 52.8353 C 0.0 **** 0.0
53459 C 54.6451 101.936 52.5098 C 0.0 **** 0.0
53460 C 56.603 100.407 53.0181 C 0.0 **** 0.0
53461 C 58.0594 100.317 53.4733 C 0.0 **** 0.0
53462 C 58.2789 101.229 54.7269 C 0.0 **** 0.0
53463 C 57.9535 102.656 54.2973 C 0.0 **** 0.0
53464 C 59.7378 101.06 55.1301 C 0.0 **** 0.0
53465 C 60.1432 99.6385 55.3661 C 0.0 **** 0.0
53466 C 59.83 98.635 54.2499 C 0.0 **** 0.0
53467 C 58.4124 98.845 53.7687 C 0.0 **** 0.0
53468 C 54.4082 101.175 51.2152 C 0.0 **** 0.0
53469 C 52.878 101.11 51.0288 C 0.0 **** 0.0
53470 C 56.4358 99.7093 51.7069 C 0.0 **** 0.0
53471 C 55.0113 99.7282 51.2248 C 0.0 **** 0.0
53472 C 58.0911 97.9829 52.5409 C 0.0 **** 0.0
53473 C 56.6694 98.2237 52.0004 C 0.0 **** 0.0
53474 C 60.1083 97.1667 54.6997 C 0.0 **** 0.0
53475 C 59.6458 96.2237 53.5811 C 0.0 **** 0.0
53476 C 58.3156 96.5182 52.8884 C 0.0 **** 0.0
53477 O 61.5523 99.74 55.4546 O 0.0 **** 0.0
53478 C 61.8759 99.9698 56.8314 C 0.0 **** 0.0
53479 C 60.8818 101.018 57.4977 C 0.0 **** 0.0
53480 C 60.1894 101.873 56.3883 C 0.0 **** 0.0
53481 C 61.5565 101.925 58.539 C 0.0 **** 0.0
53482 C 62.5418 101.172 59.3594 C 0.0 **** 0.0
53483 C 63.704 100.665 58.4791 C 0.0 **** 0.0
53484 C 63.3517 100.363 56.9718 C 0.0 **** 0.0
53485 C 64.309 99.3377 56.3581 C 0.0 **** 0.0
53486 C 65.7312 99.4045 56.947 C 0.0 **** 0.0
53487 C 65.7362 99.4369 58.5174 C 0.0 **** 0.0
53488 N 64.4193 99.5493 59.1126 N 0.0 **** 0.0
53489 C 54.9306 99.0801 49.809 C 0.0 **** 0.0
53490 C 55.328 97.5922 49.9512 C 0.0 **** 0.0
53491 C 56.5672 97.3576 50.7481 C 0.0 **** 0.0
53492 O 55.459 96.9885 48.6513 O 0.0 **** 0.0
53493 C 56.4527 97.6807 47.9185 C 0.0 **** 0.0
53494 C 55.9868 99.1227 47.6667 C 0.0 **** 0.0
53495 O 55.7237 99.8248 48.894 O 0.0 **** 0.0
53496 C 54.7164 99.1509 46.7499 C 0.0 **** 0.0
53497 C 54.8649 98.2275 45.5008 C 0.0 **** 0.0
53498 C 56.2568 97.5808 45.3645 C 0.0 **** 0.0
53499 C 56.6858 96.8755 46.6504 C 0.0 **** 0.0
53500 C 58.1708 95.635 51.638 C 0.0 **** 0.0
53501 C 56.7903 95.89 51.0778 C 0.0 **** 0.0
53502 C 59.6648 94.7607 54.033 C 0.0 **** 0.0
53503 C 59.4992 93.8809 52.8228 C 0.0 **** 0.0
53504 C 58.2833 94.1962 51.9884 C 0.0 **** 0.0
53505 C 60.8704 94.3584 54.8765 C 0.0 **** 0.0
53506 C 61.9442 95.4062 55.095 C 0.0 **** 0.0
53507 C 61.6152 96.9043 54.8561 C 0.0 **** 0.0
53508 O 59.5014 92.4797 53.0994 O 0.0 **** 0.0
53509 C 60.3837 92.0982 54.1089 C 0.0 **** 0.0
53510 C 61.5487 93.0781 54.3493 C 0.0 **** 0.0
53511 C 63.044 95.0065 56.136 C 0.0 **** 0.0
53512 C 63.5335 93.5238 55.9254 C 0.0 **** 0.0
53513 C 62.4277 92.5611 55.4609 C 0.0 **** 0.0
53514 C 64.0996 92.9351 57.2218 C 0.0 **** 0.0
53515 C 64.8827 94.0778 57.9657 C 0.0 **** 0.0
53516 C 63.8468 95.0606 58.5386 C 0.0 **** 0.0
53517 C 62.6644 95.3391 57.5978 C 0.0 **** 0.0
53518 C 62.983 91.1421 55.2062 C 0.0 **** 0.0
53519 C 61.7875 90.2169 54.9904 C 0.0 **** 0.0
53520 C 60.8273 90.6169 53.905 C 0.0 **** 0.0
53521 C 64.8305 91.6349 56.9487 C 0.0 **** 0.0
53522 C 63.7258 90.6412 56.4748 C 0.0 **** 0.0
53523 C 47.464 108.801 55.3517 C 0.0 **** 0.0
53524 C 46.4309 108.402 54.2862 C 0.0 **** 0.0
53525 C 47.9527 107.553 56.1027 C 0.0 **** 0.0
53526 O 59.1028 102.553 57.0266 O 0.0 **** 0.0
53527 C 59.5914 89.6364 54.0375 C 0.0 **** 0.0
53528 C 59.9479 88.1961 53.7899 C 0.0 **** 0.0
53529 C 61.0996 87.7646 54.6207 C 0.0 **** 0.0
53530 C 62.2663 88.7711 54.7673 C 0.0 **** 0.0
53531 C 63.1235 88.2741 55.8393 C 0.0 **** 0.0
53532 C 63.7352 86.9358 55.5218 C 0.0 **** 0.0
53533 C 62.8091 85.9219 54.802 C 0.0 **** 0.0
53534 C 61.6295 86.4954 53.9896 C 0.0 **** 0.0
53535 C 62.3157 84.811 55.693 C 0.0 **** 0.0
53536 C 63.5408 84.0979 56.275 C 0.0 **** 0.0
53537 C 64.8381 84.9343 56.487 C 0.0 **** 0.0
53538 C 64.415 86.37 56.7566 C 0.0 **** 0.0
53539 C 65.5823 87.3277 57.1749 C 0.0 **** 0.0
53540 C 65.0445 88.7403 57.4715 C 0.0 **** 0.0
53541 C 64.2581 89.2235 56.2355 C 0.0 **** 0.0
53542 C 66.3617 86.7903 58.367 C 0.0 **** 0.0
53543 C 66.8548 85.3962 57.974 C 0.0 **** 0.0
53544 C 65.7035 84.4042 57.6504 C 0.0 **** 0.0
53545 C 65.6509 91.0742 58.0615 C 0.0 **** 0.0
53546 C 66.2041 89.7087 57.7217 C 0.0 **** 0.0
53547 C 67.5613 87.7388 58.7236 C 0.0 **** 0.0
53548 C 67.1892 89.2096 58.8123 C 0.0 **** 0.0
53549 C 68.4375 90.1398 59.1053 C 0.0 **** 0.0
53550 C 69.5442 89.4155 59.8414 C 0.0 **** 0.0
53551 C 68.9457 88.4767 60.8509 C 0.0 **** 0.0
53552 C 68.1797 87.4294 60.0888 C 0.0 **** 0.0
53553 O 67.8385 86.4461 60.6971 O 0.0 **** 0.0
53554 H 43.6467 106.155 45.9302 H 0.0 **** 0.0
53555 H 45.2304 105.579 46.7426 H 0.0 **** 0.0
53556 H 44.1735 108.291 46.2533 H 0.0 **** 0.0
53557 H 45.6806 107.738 47.1777 H 0.0 **** 0.0
53558 H 45.303 108.214 44.1763 H 0.0 **** 0.0
53559 H 47.5189 107.645 43.6907 H 0.0 **** 0.0
53560 H 47.0648 105.277 45.4906 H 0.0 **** 0.0
53561 H 47.0839 105.344 43.8268 H 0.0 **** 0.0
53562 H 48.3638 106.858 46.6135 H 0.0 **** 0.0
53563 H 48.1466 109.03 47.1724 H 0.0 **** 0.0
53564 H 48.3469 109.995 44.2296 H 0.0 **** 0.0
53565 H 48.1882 111.025 45.591 H 0.0 **** 0.0
53566 H 45.9269 110.27 44.3375 H 0.0 **** 0.0
53567 H 45.8396 110.179 46.1181 H 0.0 **** 0.0
53568 H 51.9322 108.976 46.6615 H 0.0 **** 0.0
53569 H 51.6507 107.825 44.8645 H 0.0 **** 0.0
53570 H 49.5404 106.058 44.529 H 0.0 **** 0.0
53571 H 49.7064 107.709 43.9528 H 0.0 **** 0.0
53572 H 49.7134 107.653 48.2637 H 0.0 **** 0.0
53573 H 52.6055 102.512 47.2481 H 0.0 **** 0.0
53574 H 51.0258 103.288 46.8705 H 0.0 **** 0.0
53575 H 52.1848 103.115 44.7933 H 0.0 **** 0.0
53576 H 53.7011 103.658 45.4444 H 0.0 **** 0.0
53577 H 52.4381 105.584 44.2135 H 0.0 **** 0.0
53578 H 49.9339 108.358 50.8609 H 0.0 **** 0.0
53579 H 53.0731 110.898 49.4934 H 0.0 **** 0.0
53580 H 51.9313 112.31 49.3955 H 0.0 **** 0.0
53581 H 51.2321 110.732 47.7901 H 0.0 **** 0.0
53582 H 52.9075 112.687 51.7427 H 0.0 **** 0.0
53583 H 51.1038 112.888 52.1256 H 0.0 **** 0.0
53584 H 52.4282 112.646 54.1618 H 0.0 **** 0.0
53585 H 53.1919 111.199 53.5075 H 0.0 **** 0.0
53586 H 48.6486 109.038 52.6694 H 0.0 **** 0.0
53587 H 49.7475 108.018 53.728 H 0.0 **** 0.0
53588 H 48.1676 110.592 54.4614 H 0.0 **** 0.0
53589 H 50.3689 108.973 55.952 H 0.0 **** 0.0
53590 H 49.2356 110.137 56.7516 H 0.0 **** 0.0
53591 H 51.4378 111.111 56.0563 H 0.0 **** 0.0
53592 H 49.9994 112.023 55.3421 H 0.0 **** 0.0
53593 H 52.7447 108.101 52.8737 H 0.0 **** 0.0
53594 H 56.1764 104.704 54.9071 H 0.0 **** 0.0
53595 H 58.1785 103.39 55.116 H 0.0 **** 0.0
53596 H 52.6138 100.434 50.1839 H 0.0 **** 0.0
53597 H 61.6932 99.0341 57.3602 H 0.0 **** 0.0
53598 H 60.0852 100.426 57.993 H 0.0 **** 0.0
53599 H 60.9182 102.592 55.9664 H 0.0 **** 0.0
53600 H 62.0418 102.808 58.0693 H 0.0 **** 0.0
53601 H 60.7709 102.329 59.2189 H 0.0 **** 0.0
53602 H 62.0929 100.303 59.8976 H 0.0 **** 0.0
53603 H 63.0541 101.864 60.1469 H 0.0 **** 0.0
53604 H 64.3925 101.555 58.3991 H 0.0 **** 0.0
53605 H 63.4866 101.268 56.3467 H 0.0 **** 0.0
53606 H 63.9476 98.32 56.5637 H 0.0 **** 0.0
53607 H 64.3127 99.4344 55.2283 H 0.0 **** 0.0
53608 H 66.2155 100.336 56.6041 H 0.0 **** 0.0
53609 H 66.3352 98.5319 56.5096 H 0.0 **** 0.0
53610 H 66.377 100.231 58.9412 H 0.0 **** 0.0
53611 H 66.1381 98.4811 58.9257 H 0.0 **** 0.0
53612 H 63.9016 98.6734 58.876 H 0.0 **** 0.0
53613 H 57.4348 97.7082 48.4557 H 0.0 **** 0.0
53614 H 56.8278 99.6945 47.1533 H 0.0 **** 0.0
53615 H 53.7904 98.899 47.3425 H 0.0 **** 0.0
53616 H 54.5591 100.214 46.3623 H 0.0 **** 0.0
53617 H 54.677 98.8616 44.6371 H 0.0 **** 0.0
53618 H 54.1469 97.4057 45.5888 H 0.0 **** 0.0
53619 H 56.9946 98.3882 45.1936 H 0.0 **** 0.0
53620 H 56.2687 96.9473 44.4665 H 0.0 **** 0.0
53621 H 57.7198 96.4895 46.6256 H 0.0 **** 0.0
53622 H 56.0838 95.9519 46.7642 H 0.0 **** 0.0
53623 H 56.6546 95.2042 50.1644 H 0.0 **** 0.0
53624 H 58.3594 93.5509 51.0432 H 0.0 **** 0.0
53625 H 61.9627 97.4257 55.7374 H 0.0 **** 0.0
53626 H 63.916 95.6575 55.9042 H 0.0 **** 0.0
53627 H 64.3824 93.5696 55.196 H 0.0 **** 0.0
53628 H 63.2531 92.6748 57.8814 H 0.0 **** 0.0
53629 H 65.5601 94.5974 57.2897 H 0.0 **** 0.0
53630 H 65.4352 93.6784 58.8006 H 0.0 **** 0.0
53631 H 64.3837 96.0247 58.8663 H 0.0 **** 0.0
53632 H 63.5167 94.6005 59.4778 H 0.0 **** 0.0
53633 H 62.3781 96.4044 57.7219 H 0.0 **** 0.0
53634 H 61.7015 94.7637 57.8918 H 0.0 **** 0.0
53635 H 46.9123 109.458 56.0677 H 0.0 **** 0.0
53636 H 45.4212 108.167 54.7435 H 0.0 **** 0.0
53637 H 46.8143 107.514 53.827 H 0.0 **** 0.0
53638 H 46.3217 109.211 53.5555 H 0.0 **** 0.0
53639 H 48.5639 106.877 55.4662 H 0.0 **** 0.0
53640 H 47.0405 106.956 56.4452 H 0.0 **** 0.0
53641 H 48.5292 107.788 56.9974 H 0.0 **** 0.0
53642 H 59.3856 103.503 57.1837 H 0.0 **** 0.0
53643 H 59.132 89.7358 55.056 H 0.0 **** 0.0
53644 H 59.1137 87.5152 54.0089 H 0.0 **** 0.0
53645 H 61.8748 86.6889 52.9146 H 0.0 **** 0.0
53646 H 61.8621 85.3353 56.5741 H 0.0 **** 0.0
53647 H 63.7886 83.2546 55.5808 H 0.0 **** 0.0
53648 H 67.3921 84.9649 58.7969 H 0.0 **** 0.0
53649 H 66.1454 83.4576 57.3281 H 0.0 **** 0.0
53650 H 66.4493 91.814 58.3269 H 0.0 **** 0.0
53651 H 68.8288 90.538 58.1648 H 0.0 **** 0.0
53652 H 68.1762 91.0224 59.7306 H 0.0 **** 0.0
53653 H 70.1692 90.1706 60.3931 H 0.0 **** 0.0
53654 H 70.141 88.8018 59.155 H 0.0 **** 0.0
53655 H 68.2844 88.9978 61.5732 H 0.0 **** 0.0
53656 H 69.7242 88.0337 61.4619 H 0.0 **** 0.0
53657 C 37.2698 82.2502 33.453 C 0.0 **** 0.0
53658 C 37.9531 83.6249 33.5469 C 0.0 **** 0.0
53659 C 37.8044 84.1267 34.9956 C 0.0 **** 0.0
53660 C 38.0549 82.9912 36.0384 C 0.0 **** 0.0
53661 C 38.5324 81.6619 35.4 C 0.0 **** 0.0
53662 O 37.6628 81.2162 34.3807 O 0.0 **** 0.0
53663 C 36.8141 82.739 36.9729 C 0.0 **** 0.0
53664 C 36.4542 84.0827 37.7072 C 0.0 **** 0.0
53665 C 36.3199 85.2532 36.6909 C 0.0 **** 0.0
53666 C 36.4217 84.8345 35.2238 C 0.0 **** 0.0
53667 O 37.3784 84.494 38.6738 O 0.0 **** 0.0
53668 C 37.6119 83.4856 39.6831 C 0.0 **** 0.0
53669 C 38.0255 82.1223 39.0768 C 0.0 **** 0.0
53670 C 37.0396 81.6309 38.0314 C 0.0 **** 0.0
53671 C 38.1703 81.0374 40.1658 C 0.0 **** 0.0
53672 C 37.2931 80.9809 41.3241 C 0.0 **** 0.0
53673 C 36.8431 82.3643 41.8752 C 0.0 **** 0.0
53674 C 36.4753 83.3305 40.73 C 0.0 **** 0.0
53675 C 35.6165 82.1136 42.763 C 0.0 **** 0.0
53676 C 35.9501 81.1437 43.9238 C 0.0 **** 0.0
53677 C 36.6293 79.8271 43.4622 C 0.0 **** 0.0
53678 C 37.7853 80.1007 42.4827 C 0.0 **** 0.0
53679 C 38.3526 78.796 41.9621 C 0.0 **** 0.0
53680 C 39.5734 79.1275 41.0273 C 0.0 **** 0.0
53681 C 39.1038 79.999 39.8783 C 0.0 **** 0.0
53682 O 37.0529 79.1363 44.6076 O 0.0 **** 0.0
53683 C 35.9057 78.6401 45.2308 C 0.0 **** 0.0
53684 C 35.1038 79.7924 45.8531 C 0.0 **** 0.0
53685 C 34.7027 80.7862 44.7234 C 0.0 **** 0.0
53686 C 36.0638 84.5703 41.5081 C 0.0 **** 0.0
53687 C 34.7287 84.4058 42.2058 C 0.0 **** 0.0
53688 C 35.0048 83.383 43.3091 C 0.0 **** 0.0
53689 C 34.2099 85.7306 42.7234 C 0.0 **** 0.0
53690 C 35.0251 86.549 43.3586 C 0.0 **** 0.0
53691 C 36.5378 86.4443 43.1648 C 0.0 **** 0.0
53692 C 36.8976 85.5598 41.9354 C 0.0 **** 0.0
53693 C 34.4897 87.6989 44.2126 C 0.0 **** 0.0
53694 C 33.1467 87.2509 44.8621 C 0.0 **** 0.0
53695 C 32.1937 86.6377 43.8212 C 0.0 **** 0.0
53696 C 32.7081 85.94 42.785 C 0.0 **** 0.0
53697 C 31.7974 85.438 41.5949 C 0.0 **** 0.0
53698 C 30.3931 86.0356 41.6686 C 0.0 **** 0.0
53699 C 29.8616 85.815 43.1185 C 0.0 **** 0.0
53700 C 30.6891 86.7643 44.0034 C 0.0 **** 0.0
53701 C 34.0489 82.0491 45.2284 C 0.0 **** 0.0
53702 C 33.7023 83.0223 44.0724 C 0.0 **** 0.0
53703 C 33.8462 79.1926 46.5407 C 0.0 **** 0.0
53704 C 33.064 80.3102 47.2758 C 0.0 **** 0.0
53705 S 32.5071 81.67 46.1411 S 0.0 **** 0.0
53706 C 31.8242 79.6989 47.8276 C 0.0 **** 0.0
53707 C 32.073 78.5794 48.8253 C 0.0 **** 0.0
53708 C 32.9934 77.525 48.2735 C 0.0 **** 0.0
53709 C 34.26 78.1327 47.6072 C 0.0 **** 0.0
53710 C 33.4397 76.6122 49.4222 C 0.0 **** 0.0
53711 C 32.304 76.3198 50.415 C 0.0 **** 0.0
53712 C 30.8473 76.5359 49.8774 C 0.0 **** 0.0
53713 C 30.7448 77.9005 49.1677 C 0.0 **** 0.0
53714 C 29.7721 76.441 50.9101 C 0.0 **** 0.0
53715 C 29.8476 75.1743 51.7079 C 0.0 **** 0.0
53716 C 31.2582 74.8277 52.2919 C 0.0 **** 0.0
53717 C 32.4962 75.134 51.368 C 0.0 **** 0.0
53718 C 35.1362 76.9654 46.9978 C 0.0 **** 0.0
53719 C 36.3324 77.621 46.3109 C 0.0 **** 0.0
53720 C 34.1599 75.4198 48.8446 C 0.0 **** 0.0
53721 C 35.449 75.8459 48.0578 C 0.0 **** 0.0
53722 C 33.0953 73.9086 50.6226 C 0.0 **** 0.0
53723 C 34.3979 74.2964 49.9002 C 0.0 **** 0.0
53724 C 31.3254 73.4415 53.0647 C 0.0 **** 0.0
53725 C 31.9753 72.2759 52.2006 C 0.0 **** 0.0
53726 C 33.3297 72.7744 51.6393 C 0.0 **** 0.0
53727 O 28.8854 75.3101 52.7478 O 0.0 **** 0.0
53728 C 27.6295 74.9624 52.2072 C 0.0 **** 0.0
53729 C 27.2065 76.1352 51.2454 C 0.0 **** 0.0
53730 C 28.3597 76.4364 50.2384 C 0.0 **** 0.0
53731 C 26.7471 77.4718 51.8934 C 0.0 **** 0.0
53732 C 26.5079 77.3053 53.3859 C 0.0 **** 0.0
53733 C 25.7009 76.0442 53.6829 C 0.0 **** 0.0
53734 C 26.5464 74.7554 53.319 C 0.0 **** 0.0
53735 C 25.5366 73.6093 52.9814 C 0.0 **** 0.0
53736 C 24.2122 73.7377 53.733 C 0.0 **** 0.0
53737 C 23.4392 74.9868 53.1624 C 0.0 **** 0.0
53738 N 24.3473 76.1473 53.0462 N 0.0 **** 0.0
53739 C 36.1844 74.6034 47.5375 C 0.0 **** 0.0
53740 C 36.4429 73.5858 48.6475 C 0.0 **** 0.0
53741 C 35.0905 73.092 49.2651 C 0.0 **** 0.0
53742 O 37.1361 72.4398 48.1771 O 0.0 **** 0.0
53743 C 38.3325 72.7503 47.4778 C 0.0 **** 0.0
53744 C 38.1923 73.9733 46.4661 C 0.0 **** 0.0
53745 O 37.4623 75.0281 47.0729 O 0.0 **** 0.0
53746 C 37.5664 73.5424 45.0738 C 0.0 **** 0.0
53747 C 36.7813 72.2111 45.1612 C 0.0 **** 0.0
53748 C 37.6567 71.0717 45.7187 C 0.0 **** 0.0
53749 C 38.7812 71.5183 46.6628 C 0.0 **** 0.0
53750 C 34.0313 71.597 50.9406 C 0.0 **** 0.0
53751 C 35.3383 72.1055 50.404 C 0.0 **** 0.0
53752 C 32.2471 71.1161 53.1757 C 0.0 **** 0.0
53753 C 33.0867 69.997 52.5738 C 0.0 **** 0.0
53754 C 34.3926 70.5564 51.9921 C 0.0 **** 0.0
53755 C 30.9361 70.5389 53.7712 C 0.0 **** 0.0
53756 C 30.2103 71.6239 54.467 C 0.0 **** 0.0
53757 C 30.0166 72.919 53.643 C 0.0 **** 0.0
53758 O 33.3121 68.8127 53.3789 O 0.0 **** 0.0
53759 C 32.7964 69.0442 54.6969 C 0.0 **** 0.0
53760 C 31.2681 69.3625 54.7397 C 0.0 **** 0.0
53761 C 29.005 71.1886 55.296 C 0.0 **** 0.0
53762 C 29.4741 70.3282 56.4805 C 0.0 **** 0.0
53763 C 30.8641 69.6248 56.2143 C 0.0 **** 0.0
53764 C 28.4424 69.2789 56.9001 C 0.0 **** 0.0
53765 C 27.028 69.8707 56.8137 C 0.0 **** 0.0
53766 C 26.6257 70.1529 55.3492 C 0.0 **** 0.0
53767 C 27.8644 70.4639 54.4959 C 0.0 **** 0.0
53768 C 31.1067 68.4051 57.0855 C 0.0 **** 0.0
53769 C 32.6263 68.2528 57.157 C 0.0 **** 0.0
53770 C 33.2319 67.9549 55.7105 C 0.0 **** 0.0
53771 C 28.8664 68.7224 58.2548 C 0.0 **** 0.0
53772 C 30.4204 68.6571 58.4382 C 0.0 **** 0.0
53773 C 29.4842 85.4906 40.5591 C 0.0 **** 0.0
53774 C 28.8601 84.1355 40.8752 C 0.0 **** 0.0
53775 C 28.3393 86.3954 40.1884 C 0.0 **** 0.0
53776 O 28.3162 75.4971 49.2551 O 0.0 **** 0.0
53777 C 34.7668 67.9258 55.7865 C 0.0 **** 0.0
53778 C 35.1781 66.8631 56.7539 C 0.0 **** 0.0
53779 C 34.5136 67.1618 58.1136 C 0.0 **** 0.0
53780 C 32.9804 67.1158 58.0502 C 0.0 **** 0.0
53781 C 32.4287 67.3582 59.4142 C 0.0 **** 0.0
53782 C 32.9417 66.4678 60.5723 C 0.0 **** 0.0
53783 C 34.2571 65.7439 60.2912 C 0.0 **** 0.0
53784 C 35.1808 66.4985 59.341 C 0.0 **** 0.0
53785 C 34.8927 65.3372 61.589 C 0.0 **** 0.0
53786 C 34.0209 64.2754 62.3003 C 0.0 **** 0.0
53787 C 32.589 64.8059 62.3579 C 0.0 **** 0.0
53788 C 31.9893 65.3542 61.0242 C 0.0 **** 0.0
53789 C 30.6232 65.9952 61.2132 C 0.0 **** 0.0
53790 C 30.0543 66.5737 59.9179 C 0.0 **** 0.0
53791 C 30.9241 67.762 59.5718 C 0.0 **** 0.0
53792 C 29.73 64.9006 61.6959 C 0.0 **** 0.0
53793 C 30.2244 64.199 62.9992 C 0.0 **** 0.0
53794 C 31.6991 63.7205 62.9107 C 0.0 **** 0.0
53795 C 28.1742 67.4324 58.6603 C 0.0 **** 0.0
53796 C 28.6093 67.0668 60.0697 C 0.0 **** 0.0
53797 C 28.2266 65.099 61.6433 C 0.0 **** 0.0
53798 C 27.6718 65.9914 60.6017 C 0.0 **** 0.0
53799 C 26.2657 66.5105 60.8625 C 0.0 **** 0.0
53800 C 26.1725 67.1466 62.2524 C 0.0 **** 0.0
53801 C 26.6476 66.2438 63.4081 C 0.0 **** 0.0
53802 C 27.3389 64.9964 62.8811 C 0.0 **** 0.0
53803 O 27.034 63.8877 63.2417 O 0.0 **** 0.0
53804 H 37.4051 81.8919 32.4502 H 0.0 **** 0.0
53805 H 36.1815 82.379 33.5056 H 0.0 **** 0.0
53806 H 39.0356 83.5513 33.2323 H 0.0 **** 0.0
53807 H 37.4304 84.3879 32.8744 H 0.0 **** 0.0
53808 H 38.5579 84.9071 35.192 H 0.0 **** 0.0
53809 H 38.8513 83.3543 36.7452 H 0.0 **** 0.0
53810 H 38.6322 80.8219 36.1129 H 0.0 **** 0.0
53811 H 39.5519 81.7703 34.9609 H 0.0 **** 0.0
53812 H 35.9904 82.3094 36.3578 H 0.0 **** 0.0
53813 H 35.4263 84.0097 38.1476 H 0.0 **** 0.0
53814 H 37.1281 86.0107 36.822 H 0.0 **** 0.0
53815 H 35.3296 85.7339 36.9104 H 0.0 **** 0.0
53816 H 36.2749 85.755 34.5755 H 0.0 **** 0.0
53817 H 35.5506 84.1531 35.0547 H 0.0 **** 0.0
53818 H 38.5226 83.7891 40.2593 H 0.0 **** 0.0
53819 H 38.9827 82.1767 38.5748 H 0.0 **** 0.0
53820 H 36.0551 81.3407 38.5326 H 0.0 **** 0.0
53821 H 37.27 80.6157 37.5744 H 0.0 **** 0.0
53822 H 35.5993 82.9109 40.1857 H 0.0 **** 0.0
53823 H 38.6886 78.1634 42.8584 H 0.0 **** 0.0
53824 H 37.6454 78.2049 41.3578 H 0.0 **** 0.0
53825 H 39.9396 78.2321 40.5657 H 0.0 **** 0.0
53826 H 40.3503 79.7051 41.6128 H 0.0 **** 0.0
53827 H 39.7277 80.0429 38.9469 H 0.0 **** 0.0
53828 H 33.985 83.9958 41.4737 H 0.0 **** 0.0
53829 H 36.957 86.0042 44.1114 H 0.0 **** 0.0
53830 H 36.9417 87.474 43.071 H 0.0 **** 0.0
53831 H 37.8493 85.7098 41.3976 H 0.0 **** 0.0
53832 H 35.2121 87.9616 44.987 H 0.0 **** 0.0
53833 H 34.3189 88.6383 43.5866 H 0.0 **** 0.0
53834 H 32.6674 88.1587 45.2434 H 0.0 **** 0.0
53835 H 33.3048 86.5747 45.7328 H 0.0 **** 0.0
53836 H 32.2896 85.6202 40.5844 H 0.0 **** 0.0
53837 H 31.7481 84.3286 41.7771 H 0.0 **** 0.0
53838 H 30.5033 87.1136 41.4711 H 0.0 **** 0.0
53839 H 30.0515 84.756 43.4986 H 0.0 **** 0.0
53840 H 28.7637 86.0738 43.2413 H 0.0 **** 0.0
53841 H 30.4837 86.5405 45.0459 H 0.0 **** 0.0
53842 H 30.3338 87.7938 43.802 H 0.0 **** 0.0
53843 H 33.1714 83.9078 44.5003 H 0.0 **** 0.0
53844 H 31.1876 80.4831 48.3065 H 0.0 **** 0.0
53845 H 30.1634 77.7287 48.2606 H 0.0 **** 0.0
53846 H 36.7304 76.843 45.6467 H 0.0 **** 0.0
53847 H 27.7067 74.0424 51.6391 H 0.0 **** 0.0
53848 H 26.339 75.7823 50.6482 H 0.0 **** 0.0
53849 H 28.2041 77.4072 49.8019 H 0.0 **** 0.0
53850 H 27.5395 78.2973 51.8066 H 0.0 **** 0.0
53851 H 25.8331 77.8463 51.4005 H 0.0 **** 0.0
53852 H 25.9325 78.1843 53.7769 H 0.0 **** 0.0
53853 H 27.4612 77.2995 53.886 H 0.0 **** 0.0
53854 H 25.5911 75.9375 54.7565 H 0.0 **** 0.0
53855 H 27.1186 74.395 54.2046 H 0.0 **** 0.0
53856 H 25.3781 73.6429 51.9007 H 0.0 **** 0.0
53857 H 26.0177 72.6316 53.2357 H 0.0 **** 0.0
53858 H 24.3505 73.9226 54.8174 H 0.0 **** 0.0
53859 H 23.5558 72.8587 53.5288 H 0.0 **** 0.0
53860 H 22.6204 75.1813 53.899 H 0.0 **** 0.0
53861 H 23.0433 74.6686 52.1515 H 0.0 **** 0.0
53862 H 24.4259 76.3624 52.0263 H 0.0 **** 0.0
53863 H 39.0949 72.9117 48.2673 H 0.0 **** 0.0
53864 H 39.1621 74.4206 46.2993 H 0.0 **** 0.0
53865 H 36.8127 74.332 44.8262 H 0.0 **** 0.0
53866 H 38.3915 73.4533 44.3143 H 0.0 **** 0.0
53867 H 36.32 71.9033 44.1816 H 0.0 **** 0.0
53868 H 35.928 72.3575 45.8475 H 0.0 **** 0.0
53869 H 38.1289 70.461 44.894 H 0.0 **** 0.0
53870 H 37.0295 70.4278 46.349 H 0.0 **** 0.0
53871 H 39.6685 71.7658 46.0552 H 0.0 **** 0.0
53872 H 39.1364 70.721 47.3318 H 0.0 **** 0.0
53873 H 35.9161 71.2175 50.0209 H 0.0 **** 0.0
53874 H 34.9741 69.7447 51.5306 H 0.0 **** 0.0
53875 H 29.5631 73.7015 54.2838 H 0.0 **** 0.0
53876 H 28.5381 72.103 55.7792 H 0.0 **** 0.0
53877 H 29.5915 71.0695 57.3234 H 0.0 **** 0.0
53878 H 28.4865 68.3853 56.2024 H 0.0 **** 0.0
53879 H 27.0043 70.8329 57.4417 H 0.0 **** 0.0
53880 H 26.2913 69.2145 57.2936 H 0.0 **** 0.0
53881 H 26.0316 71.0146 55.3074 H 0.0 **** 0.0
53882 H 26.0821 69.2662 54.9288 H 0.0 **** 0.0
53883 H 27.5842 71.018 53.5703 H 0.0 **** 0.0
53884 H 28.3356 69.5565 54.0672 H 0.0 **** 0.0
53885 H 30.1623 85.3647 39.6759 H 0.0 **** 0.0
53886 H 28.0114 84.2679 41.6007 H 0.0 **** 0.0
53887 H 29.5836 83.4169 41.2784 H 0.0 **** 0.0
53888 H 28.353 83.681 39.9564 H 0.0 **** 0.0
53889 H 28.6302 87.4055 39.8108 H 0.0 **** 0.0
53890 H 27.7187 86.6113 41.1041 H 0.0 **** 0.0
53891 H 27.7285 85.9008 39.4126 H 0.0 **** 0.0
53892 H 27.6756 75.7803 48.5312 H 0.0 **** 0.0
53893 H 35.2053 67.6087 54.7829 H 0.0 **** 0.0
53894 H 36.2724 66.955 56.8194 H 0.0 **** 0.0
53895 H 36.0597 65.8642 59.0083 H 0.0 **** 0.0
53896 H 35.9329 64.9668 61.4778 H 0.0 **** 0.0
53897 H 34.3871 64.112 63.3431 H 0.0 **** 0.0
53898 H 29.6258 63.3087 63.1127 H 0.0 **** 0.0
53899 H 32.0868 63.3515 63.8694 H 0.0 **** 0.0
53900 H 28.3501 66.6107 57.8978 H 0.0 **** 0.0
53901 H 25.9069 67.2798 60.1796 H 0.0 **** 0.0
53902 H 25.5488 65.634 60.8423 H 0.0 **** 0.0
53903 H 25.1029 67.3946 62.5051 H 0.0 **** 0.0
53904 H 26.7139 68.1002 62.2413 H 0.0 **** 0.0
53905 H 25.7568 65.9533 64.0382 H 0.0 **** 0.0
53906 H 27.3838 66.7982 64.0992 H 0.0 **** 0.0
53907 C 77.7935 39.8117 91.3587 C 0.0 **** 0.0
53908 C 77.1882 38.8397 90.3308 C 0.0 **** 0.0
53909 C 76.7382 37.5445 90.9902 C 0.0 **** 0.0
53910 C 77.897 36.9235 91.8503 C 0.0 **** 0.0
53911 C 78.7847 38.0494 92.4927 C 0.0 **** 0.0
53912 O 77.9929 39.1965 92.6411 O 0.0 **** 0.0
53913 C 78.7095 35.867 91.0144 C 0.0 **** 0.0
53914 C 77.7777 34.651 90.5954 C 0.0 **** 0.0
53915 C 76.3312 35.0993 90.4205 C 0.0 **** 0.0
53916 C 76.1701 36.5503 89.9973 C 0.0 **** 0.0
53917 O 77.6764 33.6755 91.6256 O 0.0 **** 0.0
53918 C 78.9138 33.1055 91.9997 C 0.0 **** 0.0
53919 C 79.7626 34.2019 92.6829 C 0.0 **** 0.0
53920 C 80.0116 35.3882 91.6789 C 0.0 **** 0.0
53921 C 81.0403 33.5214 93.1002 C 0.0 **** 0.0
53922 C 81.8164 32.7091 92.1839 C 0.0 **** 0.0
53923 C 80.8899 31.6961 91.4133 C 0.0 **** 0.0
53924 C 79.6679 32.4003 90.8437 C 0.0 **** 0.0
53925 C 81.6905 30.9955 90.2904 C 0.0 **** 0.0
53926 C 82.8831 30.2927 90.8966 C 0.0 **** 0.0
53927 C 83.7775 31.2551 91.7266 C 0.0 **** 0.0
53928 C 82.934 31.9416 92.8246 C 0.0 **** 0.0
53929 C 83.8145 32.8473 93.6732 C 0.0 **** 0.0
53930 C 82.9724 33.4494 94.8032 C 0.0 **** 0.0
53931 C 81.6131 33.8853 94.3286 C 0.0 **** 0.0
53932 O 84.8412 30.5444 92.3197 O 0.0 **** 0.0
53933 C 85.6714 30.1284 91.2694 C 0.0 **** 0.0
53934 C 84.9716 29.0067 90.4793 C 0.0 **** 0.0
53935 C 83.7008 29.583 89.8494 C 0.0 **** 0.0
53936 C 78.8937 31.3745 90.0071 C 0.0 **** 0.0
53937 C 79.6731 30.8047 88.8216 C 0.0 **** 0.0
53938 C 80.8435 30.014 89.4975 C 0.0 **** 0.0
53939 C 78.8157 29.9687 87.8588 C 0.0 **** 0.0
53940 C 77.7388 29.3474 88.3597 C 0.0 **** 0.0
53941 C 77.3078 29.4904 89.8112 C 0.0 **** 0.0
53942 C 77.8268 30.7336 90.4688 C 0.0 **** 0.0
53943 C 76.904 28.4871 87.5367 C 0.0 **** 0.0
53944 C 77.7096 27.8377 86.3569 C 0.0 **** 0.0
53945 C 78.6471 28.7875 85.7253 C 0.0 **** 0.0
53946 C 79.1723 29.8218 86.4112 C 0.0 **** 0.0
53947 C 80.1104 30.8186 85.7357 C 0.0 **** 0.0
53948 C 80.2954 30.597 84.2049 C 0.0 **** 0.0
53949 C 80.4335 29.0926 83.9239 C 0.0 **** 0.0
53950 C 79.1292 28.3838 84.3425 C 0.0 **** 0.0
53951 C 82.8752 28.5276 89.1048 C 0.0 **** 0.0
53952 C 81.6756 29.1926 88.4278 C 0.0 **** 0.0
53953 C 85.8564 28.3031 89.4506 C 0.0 **** 0.0
53954 C 85.3652 28.4323 88.0107 C 0.0 **** 0.0
53955 S 83.8115 27.5297 87.8679 S 0.0 **** 0.0
53956 C 86.3078 27.8104 87.0512 C 0.0 **** 0.0
53957 C 87.7482 28.2407 87.2446 C 0.0 **** 0.0
53958 C 88.1338 27.841 88.6661 C 0.0 **** 0.0
53959 C 87.3361 28.7045 89.6102 C 0.0 **** 0.0
53960 C 89.627 27.9961 88.8114 C 0.0 **** 0.0
53961 C 90.3326 27.0277 87.845 C 0.0 **** 0.0
53962 C 90.1035 27.5712 86.4334 C 0.0 **** 0.0
53963 C 88.6111 27.5386 86.1845 C 0.0 **** 0.0
53964 C 90.6284 26.5718 85.398 C 0.0 **** 0.0
53965 C 91.951 25.8259 85.651 C 0.0 **** 0.0
53966 C 92.1811 25.5355 87.1588 C 0.0 **** 0.0
53967 C 91.7881 26.711 88.136 C 0.0 **** 0.0
53968 C 87.7397 28.5695 91.0953 C 0.0 **** 0.0
53969 C 86.955 29.6529 91.8927 C 0.0 **** 0.0
53970 C 90.1661 28.0266 90.2721 C 0.0 **** 0.0
53971 C 89.2454 28.6857 91.3305 C 0.0 **** 0.0
53972 C 92.0056 26.4578 89.6277 C 0.0 **** 0.0
53973 C 90.851 26.7012 90.6192 C 0.0 **** 0.0
53974 C 93.4834 24.7406 87.5267 C 0.0 **** 0.0
53975 C 93.9486 25.0467 88.9182 C 0.0 **** 0.0
53976 C 92.7842 25.164 89.9329 C 0.0 **** 0.0
53977 O 91.7928 24.6018 84.9691 O 0.0 **** 0.0
53978 C 91.6295 24.756 83.5546 C 0.0 **** 0.0
53979 C 91.5751 26.2527 83.0542 C 0.0 **** 0.0
53980 C 90.6344 27.1165 83.97 C 0.0 **** 0.0
53981 C 91.1224 26.401 81.5745 C 0.0 **** 0.0
53982 C 91.2754 25.074 80.8071 C 0.0 **** 0.0
53983 C 90.4117 23.9499 81.4747 C 0.0 **** 0.0
53984 C 90.4062 24.0222 83.0375 C 0.0 **** 0.0
53985 C 90.1471 22.5833 83.6208 C 0.0 **** 0.0
53986 C 89.2382 21.7281 82.6704 C 0.0 **** 0.0
53987 C 89.9367 21.5449 81.3325 C 0.0 **** 0.0
53988 N 90.8504 22.6494 80.925 N 0.0 **** 0.0
53989 C 89.7052 28.4849 92.7633 C 0.0 **** 0.0
53990 C 90.3151 27.0561 93.0384 C 0.0 **** 0.0
53991 C 91.4635 26.7562 92.0307 C 0.0 **** 0.0
53992 O 90.862 26.9749 94.3532 O 0.0 **** 0.0
53993 C 89.8253 27.2277 95.2484 C 0.0 **** 0.0
53994 C 89.3108 28.6992 95.0184 C 0.0 **** 0.0
53995 O 88.7373 28.8401 93.7363 O 0.0 **** 0.0
53996 C 90.3575 29.7319 95.3117 C 0.0 **** 0.0
53997 C 91.6559 29.2342 95.8856 C 0.0 **** 0.0
53998 C 91.4615 28.1497 96.9962 C 0.0 **** 0.0
53999 C 90.3775 27.1211 96.6515 C 0.0 **** 0.0
54000 C 93.3441 25.2948 91.3302 C 0.0 **** 0.0
54001 C 92.2011 25.4532 92.298 C 0.0 **** 0.0
54002 C 94.9651 23.9562 89.3157 C 0.0 **** 0.0
54003 C 95.4409 23.9857 90.7532 C 0.0 **** 0.0
54004 C 94.1963 24.037 91.7039 C 0.0 **** 0.0
54005 C 96.1739 23.9576 88.3641 C 0.0 **** 0.0
54006 C 95.6882 23.8619 86.8988 C 0.0 **** 0.0
54007 C 94.6643 24.921 86.5465 C 0.0 **** 0.0
54008 O 96.2053 22.8125 91.0001 O 0.0 **** 0.0
54009 C 97.3852 22.8172 90.2193 C 0.0 **** 0.0
54010 C 97.0247 22.7312 88.6936 C 0.0 **** 0.0
54011 C 96.7619 23.4886 85.8486 C 0.0 **** 0.0
54012 C 97.9468 22.5753 86.3247 C 0.0 **** 0.0
54013 C 98.2858 22.7193 87.8249 C 0.0 **** 0.0
54014 C 99.2762 22.8081 85.5634 C 0.0 **** 0.0
54015 C 98.9753 22.9329 84.0605 C 0.0 **** 0.0
54016 C 98.0401 24.1408 83.7891 C 0.0 **** 0.0
54017 C 97.2872 24.6609 85.035 C 0.0 **** 0.0
54018 C 99.0947 21.529 88.2007 C 0.0 **** 0.0
54019 C 99.4865 21.5213 89.6809 C 0.0 **** 0.0
54020 C 98.2976 21.6561 90.6399 C 0.0 **** 0.0
54021 C 100.251 21.5951 85.9202 C 0.0 **** 0.0
54022 C 100.457 21.6022 87.4639 C 0.0 **** 0.0
54023 C 81.4516 31.4423 83.6325 C 0.0 **** 0.0
54024 C 82.8888 30.9038 83.9717 C 0.0 **** 0.0
54025 C 81.319 31.5675 82.115 C 0.0 **** 0.0
54026 O 91.0633 28.4446 83.9198 O 0.0 **** 0.0
54027 C 98.7971 21.8987 92.0726 C 0.0 **** 0.0
54028 C 100.074 21.2372 92.4141 C 0.0 **** 0.0
54029 C 100.372 20.0309 91.5226 C 0.0 **** 0.0
54030 C 100.308 20.2613 89.9928 C 0.0 **** 0.0
54031 C 101.66 20.4054 89.3026 C 0.0 **** 0.0
54032 C 102.597 19.3065 89.7934 C 0.0 **** 0.0
54033 C 102.827 19.5085 91.2985 C 0.0 **** 0.0
54034 C 101.512 19.1208 91.9796 C 0.0 **** 0.0
54035 C 103.855 18.4474 91.792 C 0.0 **** 0.0
54036 C 105.19 18.6412 91.0393 C 0.0 **** 0.0
54037 C 104.918 18.4719 89.5025 C 0.0 **** 0.0
54038 C 103.883 19.4489 88.9966 C 0.0 **** 0.0
54039 C 103.641 19.3496 87.4648 C 0.0 **** 0.0
54040 C 102.722 20.5414 87.0515 C 0.0 **** 0.0
54041 C 101.4 20.4522 87.7968 C 0.0 **** 0.0
54042 C 104.986 19.3907 86.6877 C 0.0 **** 0.0
54043 C 106.017 18.4053 87.2872 C 0.0 **** 0.0
54044 C 106.252 18.7509 88.7585 C 0.0 **** 0.0
54045 C 101.569 21.6987 85.2337 C 0.0 **** 0.0
54046 C 102.432 20.4726 85.5501 C 0.0 **** 0.0
54047 C 104.603 19.202 85.205 C 0.0 **** 0.0
54048 C 103.68 20.3835 84.685 C 0.0 **** 0.0
54049 C 103.342 20.2132 83.1522 C 0.0 **** 0.0
54050 C 103.829 18.9641 82.4519 C 0.0 **** 0.0
54051 C 105.327 18.8384 82.6858 C 0.0 **** 0.0
54052 C 105.664 18.9241 84.1304 C 0.0 **** 0.0
54053 O 106.826 18.7407 84.4628 O 0.0 **** 0.0
54054 H 77.12 40.7051 91.4457 H 0.0 **** 0.0
54055 H 78.7352 40.2261 90.9785 H 0.0 **** 0.0
54056 H 76.314 39.2776 89.7599 H 0.0 **** 0.0
54057 H 77.9421 38.7008 89.5637 H 0.0 **** 0.0
54058 H 75.9132 37.8274 91.6675 H 0.0 **** 0.0
54059 H 77.4837 36.4244 92.7337 H 0.0 **** 0.0
54060 H 79.6949 38.2774 91.8318 H 0.0 **** 0.0
54061 H 79.1256 37.7319 93.5045 H 0.0 **** 0.0
54062 H 78.9687 36.4301 90.0875 H 0.0 **** 0.0
54063 H 78.163 34.1986 89.6607 H 0.0 **** 0.0
54064 H 75.7942 34.9978 91.3949 H 0.0 **** 0.0
54065 H 75.7702 34.4762 89.6986 H 0.0 **** 0.0
54066 H 75.0704 36.7311 89.7129 H 0.0 **** 0.0
54067 H 76.7427 36.6073 89.0444 H 0.0 **** 0.0
54068 H 78.7232 32.3157 92.7426 H 0.0 **** 0.0
54069 H 79.2186 34.5046 93.5671 H 0.0 **** 0.0
54070 H 80.6666 35.1206 90.8481 H 0.0 **** 0.0
54071 H 80.6034 36.1282 92.3221 H 0.0 **** 0.0
54072 H 80.0076 33.1743 90.1302 H 0.0 **** 0.0
54073 H 84.652 32.3119 94.1009 H 0.0 **** 0.0
54074 H 84.3541 33.648 93.0324 H 0.0 **** 0.0
54075 H 83.4972 34.3279 95.2403 H 0.0 **** 0.0
54076 H 82.8174 32.7302 95.605 H 0.0 **** 0.0
54077 H 81.1042 34.5669 95.0333 H 0.0 **** 0.0
54078 H 80.1005 31.6877 88.3019 H 0.0 **** 0.0
54079 H 77.644 28.5774 90.3659 H 0.0 **** 0.0
54080 H 76.1681 29.4952 89.8479 H 0.0 **** 0.0
54081 H 77.3907 30.9861 91.4123 H 0.0 **** 0.0
54082 H 76.5378 27.6582 88.1767 H 0.0 **** 0.0
54083 H 75.9719 29.0576 87.2025 H 0.0 **** 0.0
54084 H 76.9864 27.5067 85.5357 H 0.0 **** 0.0
54085 H 78.2811 26.9736 86.7081 H 0.0 **** 0.0
54086 H 79.6439 31.8202 85.7877 H 0.0 **** 0.0
54087 H 81.1247 30.8517 86.1907 H 0.0 **** 0.0
54088 H 79.3145 30.8824 83.7289 H 0.0 **** 0.0
54089 H 81.3188 28.6507 84.4928 H 0.0 **** 0.0
54090 H 80.5548 28.9878 82.816 H 0.0 **** 0.0
54091 H 79.272 27.2536 84.2749 H 0.0 **** 0.0
54092 H 78.3416 28.5879 83.6274 H 0.0 **** 0.0
54093 H 80.985 28.4086 88.0809 H 0.0 **** 0.0
54094 H 86.0155 28.0954 85.9626 H 0.0 **** 0.0
54095 H 88.3634 27.9764 85.1975 H 0.0 **** 0.0
54096 H 87.5641 30.6025 92.032 H 0.0 **** 0.0
54097 H 92.5311 24.307 83.12 H 0.0 **** 0.0
54098 H 92.6045 26.6631 83.229 H 0.0 **** 0.0
54099 H 89.5431 27.0413 83.6545 H 0.0 **** 0.0
54100 H 90.0534 26.7289 81.5413 H 0.0 **** 0.0
54101 H 91.7591 27.165 81.0511 H 0.0 **** 0.0
54102 H 92.3484 24.8761 80.8385 H 0.0 **** 0.0
54103 H 91.035 25.139 79.7204 H 0.0 **** 0.0
54104 H 89.3746 24.1809 81.1396 H 0.0 **** 0.0
54105 H 89.5013 24.6272 83.3374 H 0.0 **** 0.0
54106 H 91.1842 22.0796 83.7882 H 0.0 **** 0.0
54107 H 89.599 22.7233 84.5795 H 0.0 **** 0.0
54108 H 88.2622 22.2565 82.5438 H 0.0 **** 0.0
54109 H 88.9371 20.7468 83.1638 H 0.0 **** 0.0
54110 H 89.1762 21.3941 80.5317 H 0.0 **** 0.0
54111 H 90.5104 20.6013 81.373 H 0.0 **** 0.0
54112 H 91.8358 22.4335 81.2032 H 0.0 **** 0.0
54113 H 89.0197 26.5192 95.193 H 0.0 **** 0.0
54114 H 88.4604 28.7954 95.725 H 0.0 **** 0.0
54115 H 90.6218 30.3142 94.4288 H 0.0 **** 0.0
54116 H 89.935 30.5623 95.9143 H 0.0 **** 0.0
54117 H 92.2489 30.0928 96.3366 H 0.0 **** 0.0
54118 H 92.2619 28.8442 95.0578 H 0.0 **** 0.0
54119 H 91.1974 28.6711 97.92 H 0.0 **** 0.0
54120 H 92.4017 27.5974 97.2178 H 0.0 **** 0.0
54121 H 89.5577 27.2075 97.3565 H 0.0 **** 0.0
54122 H 90.7816 26.1018 96.8253 H 0.0 **** 0.0
54123 H 92.595 25.4339 93.353 H 0.0 **** 0.0
54124 H 94.5428 24.1432 92.7603 H 0.0 **** 0.0
54125 H 94.3081 24.7826 85.5154 H 0.0 **** 0.0
54126 H 96.1971 22.9267 85.0601 H 0.0 **** 0.0
54127 H 97.6 21.5256 86.2542 H 0.0 **** 0.0
54128 H 99.7639 23.749 85.898 H 0.0 **** 0.0
54129 H 98.4813 22.0011 83.7042 H 0.0 **** 0.0
54130 H 99.9046 23.1403 83.4734 H 0.0 **** 0.0
54131 H 97.2852 23.8681 83.0353 H 0.0 **** 0.0
54132 H 98.6615 24.9728 83.429 H 0.0 **** 0.0
54133 H 96.467 25.3636 84.6771 H 0.0 **** 0.0
54134 H 97.9436 25.2173 85.696 H 0.0 **** 0.0
54135 H 81.3555 32.4563 84.076 H 0.0 **** 0.0
54136 H 83.6436 31.5767 83.5078 H 0.0 **** 0.0
54137 H 83.0701 29.8858 83.5017 H 0.0 **** 0.0
54138 H 83.0025 30.8439 85.0888 H 0.0 **** 0.0
54139 H 80.3038 31.937 81.8043 H 0.0 **** 0.0
54140 H 81.5532 30.6139 81.5997 H 0.0 **** 0.0
54141 H 82.1298 32.2849 81.7988 H 0.0 **** 0.0
54142 H 90.4241 28.904 83.3161 H 0.0 **** 0.0
54143 H 98.9392 23.0363 92.1845 H 0.0 **** 0.0
54144 H 99.9483 20.8175 93.4382 H 0.0 **** 0.0
54145 H 101.259 18.0401 91.7746 H 0.0 **** 0.0
54146 H 104.069 18.4907 92.8693 H 0.0 **** 0.0
54147 H 105.537 19.6688 91.3275 H 0.0 **** 0.0
54148 H 106.953 18.4815 86.741 H 0.0 **** 0.0
54149 H 107.103 18.1638 89.1613 H 0.0 **** 0.0
54150 H 101.48 21.8111 84.1785 H 0.0 **** 0.0
54151 H 102.278 20.3211 82.92 H 0.0 **** 0.0
54152 H 103.733 21.1387 82.6765 H 0.0 **** 0.0
54153 H 103.694 19.0584 81.3268 H 0.0 **** 0.0
54154 H 103.252 18.0892 82.8148 H 0.0 **** 0.0
54155 H 105.86 19.6527 82.1239 H 0.0 **** 0.0
54156 H 105.605 17.8345 82.2886 H 0.0 **** 0.0
54157 C 65.8315 61.3971 27.1577 C 0.0 **** 0.0
54158 C 64.7379 61.0593 26.1427 C 0.0 **** 0.0
54159 C 64.5708 62.202 25.0791 C 0.0 **** 0.0
54160 C 64.8346 63.5833 25.6919 C 0.0 **** 0.0
54161 C 66.2282 63.5626 26.4474 C 0.0 **** 0.0
54162 O 66.7732 62.2736 26.5951 O 0.0 **** 0.0
54163 C 63.6667 64.0723 26.6377 C 0.0 **** 0.0
54164 C 62.2834 63.4279 26.3224 C 0.0 **** 0.0
54165 C 62.1449 63.1062 24.8461 C 0.0 **** 0.0
54166 C 63.203 62.0589 24.3403 C 0.0 **** 0.0
54167 O 61.1711 64.2566 26.6753 O 0.0 **** 0.0
54168 C 61.3488 65.0473 27.8438 C 0.0 **** 0.0
54169 C 62.4726 66.0626 27.612 C 0.0 **** 0.0
54170 C 63.5657 65.5966 26.6487 C 0.0 **** 0.0
54171 C 63.0692 66.6778 28.897 C 0.0 **** 0.0
54172 C 63.1153 65.9558 30.1191 C 0.0 **** 0.0
54173 C 61.8219 65.1046 30.3736 C 0.0 **** 0.0
54174 C 61.4843 64.1912 29.1416 C 0.0 **** 0.0
54175 C 62.0016 64.2905 31.6719 C 0.0 **** 0.0
54176 C 62.1984 65.3389 32.8097 C 0.0 **** 0.0
54177 C 63.5277 66.0925 32.6329 C 0.0 **** 0.0
54178 C 63.5203 66.8661 31.3401 C 0.0 **** 0.0
54179 C 64.8837 67.5324 30.9978 C 0.0 **** 0.0
54180 C 64.6927 68.4414 29.7996 C 0.0 **** 0.0
54181 C 63.911 67.7915 28.7093 C 0.0 **** 0.0
54182 O 63.9431 66.8684 33.7534 O 0.0 **** 0.0
54183 C 62.8097 67.1319 34.5359 C 0.0 **** 0.0
54184 C 62.3397 65.8547 35.2964 C 0.0 **** 0.0
54185 C 62.0739 64.7832 34.2402 C 0.0 **** 0.0
54186 C 60.2939 63.2705 29.4952 C 0.0 **** 0.0
54187 C 60.4837 62.4651 30.7846 C 0.0 **** 0.0
54188 C 60.7213 63.5053 31.9161 C 0.0 **** 0.0
54189 C 59.3482 61.5302 31.0853 C 0.0 **** 0.0
54190 C 58.1568 61.6714 30.5011 C 0.0 **** 0.0
54191 C 57.966 62.4492 29.1696 C 0.0 **** 0.0
54192 C 59.1599 63.2362 28.7736 C 0.0 **** 0.0
54193 C 56.9718 60.8713 31.0125 C 0.0 **** 0.0
54194 C 57.0575 60.6963 32.571 C 0.0 **** 0.0
54195 C 58.4206 60.1236 32.9281 C 0.0 **** 0.0
54196 C 59.4886 60.5013 32.183 C 0.0 **** 0.0
54197 C 60.8373 59.9064 32.3758 C 0.0 **** 0.0
54198 C 60.8805 58.6509 33.2722 C 0.0 **** 0.0
54199 C 59.9247 58.8406 34.4919 C 0.0 **** 0.0
54200 C 58.4762 59.0457 34.0241 C 0.0 **** 0.0
54201 C 60.6607 64.1464 34.3736 C 0.0 **** 0.0
54202 C 60.4794 63.0097 33.3639 C 0.0 **** 0.0
54203 C 61.0582 66.2212 36.1342 C 0.0 **** 0.0
54204 C 60.4373 65.0351 36.9132 C 0.0 **** 0.0
54205 S 60.4609 63.4347 36.0349 S 0.0 **** 0.0
54206 C 59.0618 65.4135 37.3161 C 0.0 **** 0.0
54207 C 59.1952 66.5806 38.3111 C 0.0 **** 0.0
54208 C 59.903 67.7904 37.7117 C 0.0 **** 0.0
54209 C 61.2153 67.4816 36.9998 C 0.0 **** 0.0
54210 C 60.2043 68.7957 38.7915 C 0.0 **** 0.0
54211 C 58.8638 69.3325 39.3043 C 0.0 **** 0.0
54212 C 57.9433 68.2306 39.8336 C 0.0 **** 0.0
54213 C 57.8275 67.0432 38.817 C 0.0 **** 0.0
54214 C 56.5973 68.8434 40.2208 C 0.0 **** 0.0
54215 C 56.6 70.1752 40.9457 C 0.0 **** 0.0
54216 C 57.7304 71.1439 40.6138 C 0.0 **** 0.0
54217 C 59.0743 70.355 40.4616 C 0.0 **** 0.0
54218 C 61.6997 68.6499 36.1409 C 0.0 **** 0.0
54219 C 63.0429 68.33 35.4375 C 0.0 **** 0.0
54220 C 61.211 69.9007 38.3676 C 0.0 **** 0.0
54221 C 61.5329 70.0389 36.8576 C 0.0 **** 0.0
54222 C 60.3328 71.2284 40.293 C 0.0 **** 0.0
54223 C 60.88 71.2544 38.9101 C 0.0 **** 0.0
54224 C 57.8498 72.251 41.6986 C 0.0 **** 0.0
54225 C 59.3083 72.6306 42.0912 C 0.0 **** 0.0
54226 C 60.1388 72.6391 40.797 C 0.0 **** 0.0
54227 O 55.3604 70.7786 40.7947 O 0.0 **** 0.0
54228 C 54.4927 70.1596 41.7082 C 0.0 **** 0.0
54229 C 54.2737 68.6873 41.3053 C 0.0 **** 0.0
54230 C 55.6384 67.9469 40.9869 C 0.0 **** 0.0
54231 C 53.2202 68.6486 40.1874 C 0.0 **** 0.0
54232 C 51.841 69.005 40.7566 C 0.0 **** 0.0
54233 C 51.9072 70.1466 41.8769 C 0.0 **** 0.0
54234 C 53.1737 71.0336 41.6938 C 0.0 **** 0.0
54235 C 53.1707 72.1337 42.7603 C 0.0 **** 0.0
54236 C 52.9774 71.5894 44.1755 C 0.0 **** 0.0
54237 C 51.723 70.6757 44.2396 C 0.0 **** 0.0
54238 N 51.7939 69.6113 43.2632 N 0.0 **** 0.0
54239 C 62.6844 71.0241 36.5786 C 0.0 **** 0.0
54240 C 62.4634 72.3444 37.3828 C 0.0 **** 0.0
54241 C 62.1585 72.0972 38.8705 C 0.0 **** 0.0
54242 O 63.6135 73.0728 37.2319 O 0.0 **** 0.0
54243 C 63.6483 73.5638 35.9151 C 0.0 **** 0.0
54244 C 63.6014 72.396 34.8511 C 0.0 **** 0.0
54245 O 62.7506 71.2949 35.1907 O 0.0 **** 0.0
54246 C 65.0129 71.8683 34.6027 C 0.0 **** 0.0
54247 C 65.856 72.9393 33.8832 C 0.0 **** 0.0
54248 C 65.588 74.3915 34.3694 C 0.0 **** 0.0
54249 C 64.9207 74.4358 35.7641 C 0.0 **** 0.0
54250 C 61.4668 73.311 40.9684 C 0.0 **** 0.0
54251 C 62.0876 73.4212 39.5707 C 0.0 **** 0.0
54252 C 59.2365 73.9506 42.7641 C 0.0 **** 0.0
54253 C 60.6732 74.4948 42.9443 C 0.0 **** 0.0
54254 C 61.3111 74.6874 41.586 C 0.0 **** 0.0
54255 C 58.5865 73.7564 44.0933 C 0.0 **** 0.0
54256 C 57.0857 73.3332 43.898 C 0.0 **** 0.0
54257 C 56.9757 72.0776 42.9802 C 0.0 **** 0.0
54258 O 60.5249 75.7518 43.5602 O 0.0 **** 0.0
54259 C 60.0156 75.5887 44.8578 C 0.0 **** 0.0
54260 C 58.591 75.1491 44.8088 C 0.0 **** 0.0
54261 C 56.3397 73.2668 45.2776 C 0.0 **** 0.0
54262 C 56.6057 74.458 46.2162 C 0.0 **** 0.0
54263 C 58.0305 74.9847 46.2302 C 0.0 **** 0.0
54264 C 56.2966 74.1234 47.691 C 0.0 **** 0.0
54265 C 55.0924 73.1522 47.8009 C 0.0 **** 0.0
54266 C 55.5115 71.8205 47.2557 C 0.0 **** 0.0
54267 C 56.407 71.8875 46.0349 C 0.0 **** 0.0
54268 C 58.1469 76.3336 46.9777 C 0.0 **** 0.0
54269 C 59.5784 76.7402 47.0717 C 0.0 **** 0.0
54270 C 60.1451 76.8928 45.648 C 0.0 **** 0.0
54271 C 56.1685 75.4993 48.4281 C 0.0 **** 0.0
54272 C 57.5536 76.1929 48.3913 C 0.0 **** 0.0
54273 C 62.3606 58.266 33.6108 C 0.0 **** 0.0
54274 C 62.9643 59.1916 34.6496 C 0.0 **** 0.0
54275 C 62.4595 56.7977 34.0929 C 0.0 **** 0.0
54276 O 56.22 67.5004 42.1851 O 0.0 **** 0.0
54277 C 61.5537 77.3657 45.7059 C 0.0 **** 0.0
54278 C 61.7198 78.6499 46.4644 C 0.0 **** 0.0
54279 C 61.173 78.4981 47.8952 C 0.0 **** 0.0
54280 C 59.6801 78.0707 47.7904 C 0.0 **** 0.0
54281 C 59.0495 77.9915 49.1809 C 0.0 **** 0.0
54282 C 59.1238 79.3505 49.8862 C 0.0 **** 0.0
54283 C 60.6227 79.7503 50.0544 C 0.0 **** 0.0
54284 C 61.2956 79.8003 48.6714 C 0.0 **** 0.0
54285 C 60.7762 81.0988 50.7518 C 0.0 **** 0.0
54286 C 60.1446 80.9693 52.1208 C 0.0 **** 0.0
54287 C 58.6568 80.6119 51.9558 C 0.0 **** 0.0
54288 C 58.5443 79.2317 51.3235 C 0.0 **** 0.0
54289 C 57.1053 78.6474 51.3157 C 0.0 **** 0.0
54290 C 57.102 77.3152 50.5996 C 0.0 **** 0.0
54291 C 57.5845 77.5354 49.1212 C 0.0 **** 0.0
54292 C 56.6166 78.4756 52.7405 C 0.0 **** 0.0
54293 C 56.5817 79.8586 53.4173 C 0.0 **** 0.0
54294 C 57.9841 80.5193 53.3664 C 0.0 **** 0.0
54295 C 55.7198 75.4035 49.8733 C 0.0 **** 0.0
54296 C 55.6506 76.7673 50.5405 C 0.0 **** 0.0
54297 C 55.2619 77.7446 52.846 C 0.0 **** 0.0
54298 C 55.0319 76.567 51.9151 C 0.0 **** 0.0
54299 C 53.6024 76.0796 51.9831 C 0.0 **** 0.0
54300 C 52.8351 76.4734 53.242 C 0.0 **** 0.0
54301 C 53.7205 76.466 54.4996 C 0.0 **** 0.0
54302 C 55.04 77.1631 54.2421 C 0.0 **** 0.0
54303 O 55.8692 77.2253 55.1646 O 0.0 **** 0.0
54304 H 66.4119 60.4519 27.3591 H 0.0 **** 0.0
54305 H 65.3531 61.7976 28.0674 H 0.0 **** 0.0
54306 H 65.1114 60.1418 25.6121 H 0.0 **** 0.0
54307 H 63.7657 60.821 26.6685 H 0.0 **** 0.0
54308 H 65.3717 62.0581 24.2935 H 0.0 **** 0.0
54309 H 64.9495 64.2283 24.8294 H 0.0 **** 0.0
54310 H 66.1338 64.0376 27.438 H 0.0 **** 0.0
54311 H 66.9837 64.2294 25.8891 H 0.0 **** 0.0
54312 H 63.9419 63.7717 27.6288 H 0.0 **** 0.0
54313 H 62.1989 62.5142 26.9201 H 0.0 **** 0.0
54314 H 62.2978 64.0094 24.2473 H 0.0 **** 0.0
54315 H 61.149 62.714 24.6489 H 0.0 **** 0.0
54316 H 63.3937 62.2162 23.2648 H 0.0 **** 0.0
54317 H 62.7682 61.0277 24.4113 H 0.0 **** 0.0
54318 H 60.4482 65.6305 27.9266 H 0.0 **** 0.0
54319 H 61.9953 66.9124 27.0729 H 0.0 **** 0.0
54320 H 64.5341 66.0351 26.8808 H 0.0 **** 0.0
54321 H 63.3381 65.971 25.6412 H 0.0 **** 0.0
54322 H 62.3366 63.5403 29.0241 H 0.0 **** 0.0
54323 H 65.2528 68.111 31.8329 H 0.0 **** 0.0
54324 H 65.6512 66.7503 30.7956 H 0.0 **** 0.0
54325 H 65.709 68.723 29.4178 H 0.0 **** 0.0
54326 H 64.1379 69.3371 30.0825 H 0.0 **** 0.0
54327 H 63.8233 68.2999 27.7315 H 0.0 **** 0.0
54328 H 61.399 61.8734 30.6812 H 0.0 **** 0.0
54329 H 57.0781 63.0868 29.301 H 0.0 **** 0.0
54330 H 57.7708 61.7906 28.3033 H 0.0 **** 0.0
54331 H 59.0215 63.8259 27.851 H 0.0 **** 0.0
54332 H 56.0021 61.3512 30.7136 H 0.0 **** 0.0
54333 H 57.0508 59.9034 30.5691 H 0.0 **** 0.0
54334 H 56.202 60.0495 32.9486 H 0.0 **** 0.0
54335 H 56.9712 61.7231 33.0859 H 0.0 **** 0.0
54336 H 61.2505 59.6066 31.3377 H 0.0 **** 0.0
54337 H 61.4945 60.7534 32.7455 H 0.0 **** 0.0
54338 H 60.4909 57.7755 32.7319 H 0.0 **** 0.0
54339 H 60.2699 59.6971 35.0875 H 0.0 **** 0.0
54340 H 60.0105 57.9255 35.1 H 0.0 **** 0.0
54341 H 57.8316 59.3643 34.892 H 0.0 **** 0.0
54342 H 58.0476 58.0991 33.6296 H 0.0 **** 0.0
54343 H 59.454 62.5418 33.4788 H 0.0 **** 0.0
54344 H 58.5551 64.5416 37.8383 H 0.0 **** 0.0
54345 H 57.2445 66.1771 39.1611 H 0.0 **** 0.0
54346 H 63.4174 69.2183 34.8391 H 0.0 **** 0.0
54347 H 54.9058 70.1872 42.7219 H 0.0 **** 0.0
54348 H 53.8862 68.1187 42.1767 H 0.0 **** 0.0
54349 H 55.3432 67.1022 40.2964 H 0.0 **** 0.0
54350 H 53.5309 69.3717 39.384 H 0.0 **** 0.0
54351 H 53.2514 67.6672 39.7043 H 0.0 **** 0.0
54352 H 51.337 68.0666 41.1946 H 0.0 **** 0.0
54353 H 51.2561 69.3856 39.9377 H 0.0 **** 0.0
54354 H 51.0223 70.7554 41.6914 H 0.0 **** 0.0
54355 H 53.1241 71.5795 40.7117 H 0.0 **** 0.0
54356 H 54.0998 72.7851 42.7348 H 0.0 **** 0.0
54357 H 52.3144 72.8305 42.569 H 0.0 **** 0.0
54358 H 52.831 72.4245 44.8402 H 0.0 **** 0.0
54359 H 53.9203 71.1048 44.5476 H 0.0 **** 0.0
54360 H 50.7924 71.2673 44.0503 H 0.0 **** 0.0
54361 H 51.6845 70.2387 45.2735 H 0.0 **** 0.0
54362 H 52.6178 68.9939 43.5475 H 0.0 **** 0.0
54363 H 62.8108 74.2834 35.7241 H 0.0 **** 0.0
54364 H 63.2655 72.819 33.868 H 0.0 **** 0.0
54365 H 65.4788 71.5867 35.5657 H 0.0 **** 0.0
54366 H 65.0274 70.9923 33.9713 H 0.0 **** 0.0
54367 H 65.6665 72.9235 32.8069 H 0.0 **** 0.0
54368 H 66.8999 72.7419 34.0137 H 0.0 **** 0.0
54369 H 64.8881 74.7725 33.6529 H 0.0 **** 0.0
54370 H 66.4671 74.9999 34.2668 H 0.0 **** 0.0
54371 H 64.733 75.4974 36.1151 H 0.0 **** 0.0
54372 H 65.6794 74.1271 36.4379 H 0.0 **** 0.0
54373 H 63.0916 73.8472 39.6979 H 0.0 **** 0.0
54374 H 62.3447 75.0651 41.7182 H 0.0 **** 0.0
54375 H 57.3718 71.2086 43.47 H 0.0 **** 0.0
54376 H 55.2244 73.3085 45.0346 H 0.0 **** 0.0
54377 H 55.9802 75.2885 45.8249 H 0.0 **** 0.0
54378 H 57.1544 73.6178 48.18 H 0.0 **** 0.0
54379 H 54.2043 73.4656 47.2594 H 0.0 **** 0.0
54380 H 54.7601 72.9781 48.8553 H 0.0 **** 0.0
54381 H 54.6263 71.1353 47.0994 H 0.0 **** 0.0
54382 H 56.099 71.2679 48.0653 H 0.0 **** 0.0
54383 H 56.1124 70.9896 45.3744 H 0.0 **** 0.0
54384 H 57.4772 71.7525 46.3815 H 0.0 **** 0.0
54385 H 62.9933 58.3801 32.6693 H 0.0 **** 0.0
54386 H 64.0095 59.018 34.803 H 0.0 **** 0.0
54387 H 62.5801 58.9996 35.644 H 0.0 **** 0.0
54388 H 62.8888 60.2734 34.4128 H 0.0 **** 0.0
54389 H 61.9374 56.0664 33.3749 H 0.0 **** 0.0
54390 H 62.0356 56.6568 35.0539 H 0.0 **** 0.0
54391 H 63.5176 56.4898 34.1035 H 0.0 **** 0.0
54392 H 56.0586 66.519 42.3233 H 0.0 **** 0.0
54393 H 61.9899 77.624 44.6779 H 0.0 **** 0.0
54394 H 62.7964 78.9876 46.4598 H 0.0 **** 0.0
54395 H 62.3968 80.0401 48.7961 H 0.0 **** 0.0
54396 H 61.8577 81.2321 50.9453 H 0.0 **** 0.0
54397 H 60.7937 80.2558 52.7277 H 0.0 **** 0.0
54398 H 56.1957 79.8094 54.4637 H 0.0 **** 0.0
54399 H 57.9739 81.5448 53.804 H 0.0 **** 0.0
54400 H 54.7557 74.8878 49.9743 H 0.0 **** 0.0
54401 H 52.9756 76.3987 51.0614 H 0.0 **** 0.0
54402 H 53.6875 74.952 51.9765 H 0.0 **** 0.0
54403 H 51.998 75.7328 53.4283 H 0.0 **** 0.0
54404 H 52.4437 77.4983 53.0709 H 0.0 **** 0.0
54405 H 53.8366 75.4064 54.8765 H 0.0 **** 0.0
54406 H 53.2117 77.0263 55.3347 H 0.0 **** 0.0
54407 C 15.1606 95.7438 80.6389 C 0.0 **** 0.0
54408 C 14.3555 96.5282 81.7197 C 0.0 **** 0.0
54409 C 12.8629 96.158 81.6573 C 0.0 **** 0.0
54410 C 12.4123 95.8491 80.1982 C 0.0 **** 0.0
54411 C 13.2997 94.7223 79.5751 C 0.0 **** 0.0
54412 O 14.5137 94.5251 80.2879 O 0.0 **** 0.0
54413 C 12.3429 97.1471 79.3238 C 0.0 **** 0.0
54414 C 11.9569 98.4416 80.1055 C 0.0 **** 0.0
54415 C 11.1658 98.0755 81.3543 C 0.0 **** 0.0
54416 C 11.9723 97.2014 82.3606 C 0.0 **** 0.0
54417 O 11.1115 99.3365 79.3791 O 0.0 **** 0.0
54418 C 11.5094 99.5721 78.0388 C 0.0 **** 0.0
54419 C 11.2655 98.2455 77.2323 C 0.0 **** 0.0
54420 C 11.4209 96.9523 78.0879 C 0.0 **** 0.0
54421 C 11.9358 98.1432 75.9505 C 0.0 **** 0.0
54422 C 13.2032 98.8019 75.7381 C 0.0 **** 0.0
54423 C 13.2314 100.22 76.3808 C 0.0 **** 0.0
54424 C 12.9477 100.087 77.8836 C 0.0 **** 0.0
54425 C 14.6123 100.884 76.1497 C 0.0 **** 0.0
54426 C 14.785 100.979 74.6387 C 0.0 **** 0.0
54427 C 14.8743 99.5592 74.0448 C 0.0 **** 0.0
54428 C 13.5572 98.8732 74.193 C 0.0 **** 0.0
54429 C 13.595 97.4952 73.6048 C 0.0 **** 0.0
54430 C 12.2053 96.8307 73.7495 C 0.0 **** 0.0
54431 C 11.5447 97.1222 75.0539 C 0.0 **** 0.0
54432 O 15.445 99.4399 72.7455 O 0.0 **** 0.0
54433 C 15.2937 100.605 72.0234 C 0.0 **** 0.0
54434 C 16.0224 101.826 72.6821 C 0.0 **** 0.0
54435 C 16.0238 101.757 74.2275 C 0.0 **** 0.0
54436 C 13.2195 101.401 78.5963 C 0.0 **** 0.0
54437 C 14.6038 101.994 78.3664 C 0.0 **** 0.0
54438 C 14.6866 102.296 76.8291 C 0.0 **** 0.0
54439 C 14.9378 103.209 79.2334 C 0.0 **** 0.0
54440 C 13.9552 104.028 79.6313 C 0.0 **** 0.0
54441 C 12.5121 103.692 79.4106 C 0.0 **** 0.0
54442 C 12.2449 102.249 79.0766 C 0.0 **** 0.0
54443 C 14.3171 105.341 80.2423 C 0.0 **** 0.0
54444 C 15.6681 105.838 79.7339 C 0.0 **** 0.0
54445 C 16.7253 104.758 79.7626 C 0.0 **** 0.0
54446 C 16.3173 103.478 79.6243 C 0.0 **** 0.0
54447 C 17.3373 102.341 79.8221 C 0.0 **** 0.0
54448 C 18.6355 102.815 80.4693 C 0.0 **** 0.0
54449 C 19.0956 104.113 79.7933 C 0.0 **** 0.0
54450 C 18.1298 105.244 80.062 C 0.0 **** 0.0
54451 C 16.0683 103.131 74.8672 C 0.0 **** 0.0
54452 C 15.9093 103.079 76.3806 C 0.0 **** 0.0
54453 C 17.4778 102.063 72.2488 C 0.0 **** 0.0
54454 C 17.7911 103.526 72.6043 C 0.0 **** 0.0
54455 S 17.7044 103.92 74.3958 S 0.0 **** 0.0
54456 C 19.1199 103.97 72.0473 C 0.0 **** 0.0
54457 C 19.2459 103.77 70.5374 C 0.0 **** 0.0
54458 C 19.0341 102.248 70.2518 C 0.0 **** 0.0
54459 C 17.6421 101.863 70.7243 C 0.0 **** 0.0
54460 C 18.9749 102.037 68.7453 C 0.0 **** 0.0
54461 C 20.2172 102.593 68.0426 C 0.0 **** 0.0
54462 C 20.7116 103.968 68.4986 C 0.0 **** 0.0
54463 C 20.6023 104.167 70.0589 C 0.0 **** 0.0
54464 C 20.1638 105.144 67.6628 C 0.0 **** 0.0
54465 C 20.3856 104.91 66.133 C 0.0 **** 0.0
54466 C 20.8998 103.486 65.7049 C 0.0 **** 0.0
54467 C 20.0859 102.476 66.4922 C 0.0 **** 0.0
54468 C 17.3128 100.409 70.424 C 0.0 **** 0.0
54469 C 15.7544 100.37 70.5676 C 0.0 **** 0.0
54470 C 18.9643 100.539 68.4256 C 0.0 **** 0.0
54471 C 17.6301 100.027 68.9437 C 0.0 **** 0.0
54472 C 20.145 101.016 66.1618 C 0.0 **** 0.0
54473 C 18.9694 100.331 66.8901 C 0.0 **** 0.0
54474 C 20.7352 103.286 64.1913 C 0.0 **** 0.0
54475 C 19.7953 102.121 63.8004 C 0.0 **** 0.0
54476 C 20.0733 100.809 64.5801 C 0.0 **** 0.0
54477 O 21.0388 105.955 65.4228 O 0.0 **** 0.0
54478 C 22.3166 106.28 65.9569 C 0.0 **** 0.0
54479 C 22.2831 106.389 67.5282 C 0.0 **** 0.0
54480 C 20.8492 106.495 68.0096 C 0.0 **** 0.0
54481 C 23.1927 107.453 68.1378 C 0.0 **** 0.0
54482 C 24.4586 107.571 67.3473 C 0.0 **** 0.0
54483 C 24.1845 108.091 65.9094 C 0.0 **** 0.0
54484 C 22.7868 107.664 65.3657 C 0.0 **** 0.0
54485 C 22.7687 107.733 63.8071 C 0.0 **** 0.0
54486 C 23.7504 108.739 63.2138 C 0.0 **** 0.0
54487 C 25.2119 108.485 63.6549 C 0.0 **** 0.0
54488 N 25.2652 107.765 64.953 N 0.0 **** 0.0
54489 C 17.6651 98.4895 68.744 C 0.0 **** 0.0
54490 C 17.726 98.1453 67.2408 C 0.0 **** 0.0
54491 C 18.9188 98.8433 66.5464 C 0.0 **** 0.0
54492 O 16.5082 98.3686 66.5914 O 0.0 **** 0.0
54493 C 15.3939 97.8258 67.337 C 0.0 **** 0.0
54494 C 15.7796 97.0691 68.6476 C 0.0 **** 0.0
54495 O 16.6407 97.8156 69.4953 O 0.0 **** 0.0
54496 C 16.3749 95.6427 68.3902 C 0.0 **** 0.0
54497 C 16.1349 95.1405 66.9495 C 0.0 **** 0.0
54498 C 14.6878 95.474 66.5375 C 0.0 **** 0.0
54499 C 14.4693 96.9926 66.3766 C 0.0 **** 0.0
54500 C 18.9445 99.8394 64.1844 C 0.0 **** 0.0
54501 C 18.894 98.5399 65.0229 C 0.0 **** 0.0
54502 C 19.7299 101.88 62.3152 C 0.0 **** 0.0
54503 C 18.7793 100.743 61.8527 C 0.0 **** 0.0
54504 C 18.9343 99.4778 62.6887 C 0.0 **** 0.0
54505 C 21.092 101.612 61.6685 C 0.0 **** 0.0
54506 C 22.2715 102.424 62.2827 C 0.0 **** 0.0
54507 C 21.912 103.602 63.2817 C 0.0 **** 0.0
54508 O 18.9121 100.353 60.4819 O 0.0 **** 0.0
54509 C 19.4771 101.368 59.7075 C 0.0 **** 0.0
54510 C 20.9073 101.677 60.1643 C 0.0 **** 0.0
54511 C 23.4049 102.798 61.2892 C 0.0 **** 0.0
54512 C 22.9045 103.272 59.8921 C 0.0 **** 0.0
54513 C 21.4508 102.929 59.4151 C 0.0 **** 0.0
54514 C 23.9268 103.026 58.7807 C 0.0 **** 0.0
54515 C 25.3845 103.18 59.2791 C 0.0 **** 0.0
54516 C 25.6238 102.03 60.2812 C 0.0 **** 0.0
54517 C 24.4149 101.666 61.1574 C 0.0 **** 0.0
54518 C 21.4453 102.624 57.8918 C 0.0 **** 0.0
54519 C 20.0694 102.152 57.3677 C 0.0 **** 0.0
54520 C 19.523 100.954 58.2296 C 0.0 **** 0.0
54521 C 23.5433 103.994 57.6028 C 0.0 **** 0.0
54522 C 22.1265 103.746 57.0466 C 0.0 **** 0.0
54523 C 19.7213 101.713 80.5959 C 0.0 **** 0.0
54524 C 20.4043 101.496 79.2761 C 0.0 **** 0.0
54525 C 20.7528 102.057 81.7133 C 0.0 **** 0.0
54526 O 20.735 106.731 69.3958 O 0.0 **** 0.0
54527 C 18.1565 100.422 57.7547 C 0.0 **** 0.0
54528 C 18.2851 100.067 56.2561 C 0.0 **** 0.0
54529 C 18.7611 101.256 55.4118 C 0.0 **** 0.0
54530 C 20.1723 101.653 55.9166 C 0.0 **** 0.0
54531 C 20.7733 102.813 55.0754 C 0.0 **** 0.0
54532 C 20.7957 102.516 53.6038 C 0.0 **** 0.0
54533 C 19.4736 102.043 53.0727 C 0.0 **** 0.0
54534 C 18.9489 100.857 53.9587 C 0.0 **** 0.0
54535 C 19.6353 101.714 51.5846 C 0.0 **** 0.0
54536 C 20.0744 102.943 50.8063 C 0.0 **** 0.0
54537 C 21.3132 103.633 51.4035 C 0.0 **** 0.0
54538 C 21.1641 103.825 52.9167 C 0.0 **** 0.0
54539 C 22.383 104.598 53.5299 C 0.0 **** 0.0
54540 C 23.1182 103.911 54.6265 C 0.0 **** 0.0
54541 C 22.1542 103.187 55.6036 C 0.0 **** 0.0
54542 C 23.3335 105.206 52.4475 C 0.0 **** 0.0
54543 C 22.3571 105.986 51.5572 C 0.0 **** 0.0
54544 C 21.4889 105.048 50.7059 C 0.0 **** 0.0
54545 C 24.6397 104.148 56.5619 C 0.0 **** 0.0
54546 C 24.0346 104.933 55.343 C 0.0 **** 0.0
54547 C 24.4022 106.096 53.1509 C 0.0 **** 0.0
54548 C 25.0768 105.46 54.3982 C 0.0 **** 0.0
54549 C 25.989 106.544 55.0021 C 0.0 **** 0.0
54550 C 27.0885 106.935 53.9674 C 0.0 **** 0.0
54551 C 26.9163 106.42 52.5404 C 0.0 **** 0.0
54552 C 25.4428 106.606 52.1585 C 0.0 **** 0.0
54553 O 25.1244 107.158 51.1326 O 0.0 **** 0.0
54554 H 16.1643 95.4588 81.0409 H 0.0 **** 0.0
54555 H 15.3486 96.3361 79.7248 H 0.0 **** 0.0
54556 H 14.8121 96.3307 82.7301 H 0.0 **** 0.0
54557 H 14.4112 97.6396 81.4883 H 0.0 **** 0.0
54558 H 12.7113 95.1811 82.2221 H 0.0 **** 0.0
54559 H 11.3548 95.4801 80.2687 H 0.0 **** 0.0
54560 H 13.5502 94.9457 78.5219 H 0.0 **** 0.0
54561 H 12.7557 93.7706 79.6177 H 0.0 **** 0.0
54562 H 13.3787 97.2598 78.8838 H 0.0 **** 0.0
54563 H 12.9151 98.9407 80.4398 H 0.0 **** 0.0
54564 H 10.2648 97.4684 80.9784 H 0.0 **** 0.0
54565 H 10.7549 98.9924 81.8942 H 0.0 **** 0.0
54566 H 11.2577 96.6851 82.9567 H 0.0 **** 0.0
54567 H 12.516 97.8177 83.1297 H 0.0 **** 0.0
54568 H 10.8183 100.33 77.6501 H 0.0 **** 0.0
54569 H 10.2137 98.2549 76.9378 H 0.0 **** 0.0
54570 H 11.7648 96.1255 77.4354 H 0.0 **** 0.0
54571 H 10.4268 96.6691 78.4976 H 0.0 **** 0.0
54572 H 13.6731 99.3255 78.3159 H 0.0 **** 0.0
54573 H 13.8725 97.538 72.5253 H 0.0 **** 0.0
54574 H 14.3641 96.8532 74.0922 H 0.0 **** 0.0
54575 H 12.3404 95.723 73.7163 H 0.0 **** 0.0
54576 H 11.5122 97.2183 72.9597 H 0.0 **** 0.0
54577 H 10.6668 96.5572 75.2378 H 0.0 **** 0.0
54578 H 15.3301 101.174 78.6854 H 0.0 **** 0.0
54579 H 12.0796 104.226 78.5417 H 0.0 **** 0.0
54580 H 11.9071 103.902 80.347 H 0.0 **** 0.0
54581 H 11.2208 101.967 79.0534 H 0.0 **** 0.0
54582 H 13.476 106.091 80.118 H 0.0 **** 0.0
54583 H 14.381 105.207 81.3663 H 0.0 **** 0.0
54584 H 16.0582 106.662 80.386 H 0.0 **** 0.0
54585 H 15.6122 106.305 78.7372 H 0.0 **** 0.0
54586 H 16.9068 101.575 80.5057 H 0.0 **** 0.0
54587 H 17.524 101.877 78.8512 H 0.0 **** 0.0
54588 H 18.3691 103.095 81.5165 H 0.0 **** 0.0
54589 H 19.0831 103.929 78.7031 H 0.0 **** 0.0
54590 H 20.1127 104.373 80.1649 H 0.0 **** 0.0
54591 H 18.336 106.11 79.3842 H 0.0 **** 0.0
54592 H 18.1653 105.495 81.1125 H 0.0 **** 0.0
54593 H 15.7305 104.039 76.7474 H 0.0 **** 0.0
54594 H 19.3255 105.032 72.3275 H 0.0 **** 0.0
54595 H 21.4693 103.701 70.6475 H 0.0 **** 0.0
54596 H 15.2904 101.03 69.7958 H 0.0 **** 0.0
54597 H 23.0582 105.506 65.6334 H 0.0 **** 0.0
54598 H 22.7396 105.39 67.8023 H 0.0 **** 0.0
54599 H 20.2988 107.344 67.4545 H 0.0 **** 0.0
54600 H 22.7287 108.456 68.08 H 0.0 **** 0.0
54601 H 23.4419 107.18 69.1782 H 0.0 **** 0.0
54602 H 25.0008 106.624 67.3497 H 0.0 **** 0.0
54603 H 25.1041 108.325 67.8719 H 0.0 **** 0.0
54604 H 24.2409 109.205 65.977 H 0.0 **** 0.0
54605 H 22.057 108.405 65.6888 H 0.0 **** 0.0
54606 H 22.9724 106.708 63.4795 H 0.0 **** 0.0
54607 H 21.7263 108.087 63.5238 H 0.0 **** 0.0
54608 H 23.4027 109.761 63.5325 H 0.0 **** 0.0
54609 H 23.6808 108.701 62.1148 H 0.0 **** 0.0
54610 H 25.7409 109.452 63.6936 H 0.0 **** 0.0
54611 H 25.7471 107.92 62.9041 H 0.0 **** 0.0
54612 H 25.168 106.758 64.7231 H 0.0 **** 0.0
54613 H 14.7517 98.7285 67.6277 H 0.0 **** 0.0
54614 H 14.8177 96.919 69.1875 H 0.0 **** 0.0
54615 H 17.4728 95.632 68.5727 H 0.0 **** 0.0
54616 H 15.9006 94.9242 69.0915 H 0.0 **** 0.0
54617 H 16.3216 94.0227 66.9121 H 0.0 **** 0.0
54618 H 16.8776 95.611 66.2618 H 0.0 **** 0.0
54619 H 14.0266 95.0749 67.2995 H 0.0 **** 0.0
54620 H 14.3889 94.9368 65.6164 H 0.0 **** 0.0
54621 H 13.4211 97.2546 66.7 H 0.0 **** 0.0
54622 H 14.6017 97.2901 65.3094 H 0.0 **** 0.0
54623 H 19.6575 97.7675 64.7079 H 0.0 **** 0.0
54624 H 18.1294 98.7849 62.4176 H 0.0 **** 0.0
54625 H 21.7936 104.568 62.6928 H 0.0 **** 0.0
54626 H 23.995 103.636 61.699 H 0.0 **** 0.0
54627 H 22.9002 104.348 60.0038 H 0.0 **** 0.0
54628 H 23.8117 102.029 58.4163 H 0.0 **** 0.0
54629 H 25.4474 104.154 59.8185 H 0.0 **** 0.0
54630 H 26.0419 103.073 58.3967 H 0.0 **** 0.0
54631 H 26.4934 102.276 60.8953 H 0.0 **** 0.0
54632 H 25.8481 101.091 59.7116 H 0.0 **** 0.0
54633 H 24.7895 101.38 62.1766 H 0.0 **** 0.0
54634 H 23.8957 100.78 60.7705 H 0.0 **** 0.0
54635 H 19.2413 100.726 80.7955 H 0.0 **** 0.0
54636 H 20.8892 100.505 79.2861 H 0.0 **** 0.0
54637 H 21.1907 102.27 79.1209 H 0.0 **** 0.0
54638 H 19.7477 101.448 78.3572 H 0.0 **** 0.0
54639 H 20.2637 102.107 82.718 H 0.0 **** 0.0
54640 H 21.2682 103.026 81.5491 H 0.0 **** 0.0
54641 H 21.4878 101.248 81.8461 H 0.0 **** 0.0
54642 H 19.7782 106.708 69.6657 H 0.0 **** 0.0
54643 H 17.9921 99.4435 58.2887 H 0.0 **** 0.0
54644 H 17.3431 99.7683 55.8148 H 0.0 **** 0.0
54645 H 17.9675 100.528 53.502 H 0.0 **** 0.0
54646 H 18.6856 101.393 51.1507 H 0.0 **** 0.0
54647 H 19.2324 103.582 50.5992 H 0.0 **** 0.0
54648 H 22.8253 106.786 50.9103 H 0.0 **** 0.0
54649 H 21.9938 104.825 49.7221 H 0.0 **** 0.0
54650 H 25.443 104.768 57.011 H 0.0 **** 0.0
54651 H 25.3052 107.427 55.2589 H 0.0 **** 0.0
54652 H 26.3838 106.229 55.9915 H 0.0 **** 0.0
54653 H 28.1334 106.621 54.3231 H 0.0 **** 0.0
54654 H 27.1 108.043 53.9873 H 0.0 **** 0.0
54655 H 27.0643 105.355 52.5412 H 0.0 **** 0.0
54656 H 27.6726 106.976 51.9159 H 0.0 **** 0.0
54657 C 67.2033 17.7947 -11.9855 C 0.0 **** 0.0
54658 C 68.086 16.5233 -12.1605 C 0.0 **** 0.0
54659 C 67.2019 15.2497 -12.1563 C 0.0 **** 0.0
54660 C 66.2996 15.2123 -10.9045 C 0.0 **** 0.0
54661 C 65.7521 16.6279 -10.5795 C 0.0 **** 0.0
54662 O 65.8401 17.5042 -11.6957 O 0.0 **** 0.0
54663 C 66.848 14.4492 -9.68752 C 0.0 **** 0.0
54664 C 67.6524 13.1551 -10.0356 C 0.0 **** 0.0
54665 C 67.5435 12.787 -11.5049 C 0.0 **** 0.0
54666 C 68.0078 13.9428 -12.3505 C 0.0 **** 0.0
54667 O 67.2972 12.0047 -9.22147 O 0.0 **** 0.0
54668 C 67.2729 12.2853 -7.83092 C 0.0 **** 0.0
54669 C 66.2174 13.3801 -7.43217 C 0.0 **** 0.0
54670 C 65.7237 14.0929 -8.73076 C 0.0 **** 0.0
54671 C 66.7007 14.2805 -6.26433 C 0.0 **** 0.0
54672 C 67.5016 13.637 -5.26739 C 0.0 **** 0.0
54673 C 68.7775 12.9032 -5.85645 C 0.0 **** 0.0
54674 C 68.7376 12.6894 -7.35782 C 0.0 **** 0.0
54675 C 70.1697 13.3989 -5.37665 C 0.0 **** 0.0
54676 C 70.2254 13.8583 -3.91203 C 0.0 **** 0.0
54677 C 68.8977 13.735 -3.1655 C 0.0 **** 0.0
54678 C 67.7065 14.37 -3.92501 C 0.0 **** 0.0
54679 C 67.751 15.88 -4.03802 C 0.0 **** 0.0
54680 C 66.5364 16.4316 -4.77196 C 0.0 **** 0.0
54681 C 66.2164 15.6092 -6.02363 C 0.0 **** 0.0
54682 O 69.1018 14.2674 -1.87236 O 0.0 **** 0.0
54683 C 69.818 13.2875 -1.15155 C 0.0 **** 0.0
54684 C 71.277 13.3245 -1.60805 C 0.0 **** 0.0
54685 C 71.3028 13.1053 -3.08898 C 0.0 **** 0.0
54686 C 69.8577 11.7052 -7.67943 C 0.0 **** 0.0
54687 C 71.2272 12.2035 -7.3516 C 0.0 **** 0.0
54688 C 71.3334 12.4563 -5.82134 C 0.0 **** 0.0
54689 C 72.3464 11.2768 -7.77805 C 0.0 **** 0.0
54690 C 72.1029 9.93521 -7.87356 C 0.0 **** 0.0
54691 C 70.7281 9.38165 -7.69379 C 0.0 **** 0.0
54692 C 69.6397 10.3868 -7.90564 C 0.0 **** 0.0
54693 C 73.2077 8.98117 -8.2206 C 0.0 **** 0.0
54694 C 74.4839 9.45377 -7.53749 C 0.0 **** 0.0
54695 C 74.716 10.8569 -7.96504 C 0.0 **** 0.0
54696 C 73.7016 11.7201 -8.03595 C 0.0 **** 0.0
54697 C 73.8849 13.1075 -8.62378 C 0.0 **** 0.0
54698 C 75.1263 13.1859 -9.55213 C 0.0 **** 0.0
54699 C 76.3352 12.6221 -8.77271 C 0.0 **** 0.0
54700 C 76.065 11.178 -8.55702 C 0.0 **** 0.0
54701 C 72.6525 13.2163 -3.72435 C 0.0 **** 0.0
54702 C 72.6296 13.0712 -5.28355 C 0.0 **** 0.0
54703 C 72.0784 12.2687 -0.829 C 0.0 **** 0.0
54704 C 73.5367 12.1428 -1.22013 C 0.0 **** 0.0
54705 S 73.6913 11.8341 -3.03613 S 0.0 **** 0.0
54706 C 74.2718 11.0365 -0.364279 C 0.0 **** 0.0
54707 C 74.3758 11.5961 1.08675 C 0.0 **** 0.0
54708 C 73.0192 12.0287 1.64219 C 0.0 **** 0.0
54709 C 72.0763 12.7488 0.642583 C 0.0 **** 0.0
54710 C 73.3029 12.9778 2.78446 C 0.0 **** 0.0
54711 C 74.1142 12.3607 3.93231 C 0.0 **** 0.0
54712 C 75.3516 11.5943 3.3976 C 0.0 **** 0.0
54713 C 75.0917 10.7214 2.14876 C 0.0 **** 0.0
54714 C 75.9766 10.8024 4.63279 C 0.0 **** 0.0
54715 C 76.3711 11.7517 5.72162 C 0.0 **** 0.0
54716 C 75.2485 12.7333 6.17303 C 0.0 **** 0.0
54717 C 74.5491 13.4258 4.92874 C 0.0 **** 0.0
54718 C 70.6959 12.8317 1.23024 C 0.0 **** 0.0
54719 C 69.6566 13.4884 0.339778 C 0.0 **** 0.0
54720 C 72.0783 13.8543 3.17701 C 0.0 **** 0.0
54721 C 70.7047 13.2818 2.6898 C 0.0 **** 0.0
54722 C 73.4787 14.4707 5.2505 C 0.0 **** 0.0
54723 C 72.0409 14.2204 4.64634 C 0.0 **** 0.0
54724 C 75.5698 13.7414 7.36193 C 0.0 **** 0.0
54725 C 74.7621 15.0871 7.23813 C 0.0 **** 0.0
54726 C 73.3724 14.9368 6.67076 C 0.0 **** 0.0
54727 O 77.3442 11.3136 6.69097 O 0.0 **** 0.0
54728 C 77.1797 9.93681 7.02863 C 0.0 **** 0.0
54729 C 77.4339 9.05172 5.76099 C 0.0 **** 0.0
54730 C 77.1451 9.82887 4.4116 C 0.0 **** 0.0
54731 C 76.6764 7.68008 5.78958 C 0.0 **** 0.0
54732 C 76.5823 7.18378 7.20564 C 0.0 **** 0.0
54733 C 75.7235 8.12013 8.09057 C 0.0 **** 0.0
54734 C 75.825 9.65156 7.68329 C 0.0 **** 0.0
54735 C 75.6595 10.5806 8.92977 C 0.0 **** 0.0
54736 C 74.674 9.99377 9.91491 C 0.0 **** 0.0
54737 C 75.1579 8.6078 10.4229 C 0.0 **** 0.0
54738 N 76.1395 7.98034 9.50759 N 0.0 **** 0.0
54739 C 69.6685 14.4104 2.93347 C 0.0 **** 0.0
54740 C 69.7709 15.1212 4.30897 C 0.0 **** 0.0
54741 C 71.1922 15.4958 4.68481 C 0.0 **** 0.0
54742 O 68.9422 16.2674 4.27452 O 0.0 **** 0.0
54743 C 67.5957 15.8583 4.08591 C 0.0 **** 0.0
54744 C 67.4338 14.9948 2.7756 C 0.0 **** 0.0
54745 O 68.3399 13.8977 2.8007 O 0.0 **** 0.0
54746 C 67.5357 15.8495 1.47233 C 0.0 **** 0.0
54747 C 66.8974 17.2427 1.60322 C 0.0 **** 0.0
54748 C 65.8505 17.2814 2.72468 C 0.0 **** 0.0
54749 C 66.5652 17.0001 4.07726 C 0.0 **** 0.0
54750 C 72.6912 16.3011 6.61133 C 0.0 **** 0.0
54751 C 71.2466 16.1219 6.09095 C 0.0 **** 0.0
54752 C 74.8621 15.9173 8.55033 C 0.0 **** 0.0
54753 C 74.1937 17.2657 8.38281 C 0.0 **** 0.0
54754 C 72.7059 16.9992 7.95537 C 0.0 **** 0.0
54755 C 76.3528 16.2009 8.7504 C 0.0 **** 0.0
54756 C 77.1275 14.9118 8.99188 C 0.0 **** 0.0
54757 C 77.0324 14.0054 7.70987 C 0.0 **** 0.0
54758 O 74.273 17.9729 9.60504 O 0.0 **** 0.0
54759 C 75.6023 18.4245 9.72144 C 0.0 **** 0.0
54760 C 76.4995 17.1723 9.96711 C 0.0 **** 0.0
54761 C 78.6425 15.068 9.43376 C 0.0 **** 0.0
54762 C 78.8713 16.3473 10.3277 C 0.0 **** 0.0
54763 C 77.9702 17.5592 10.0744 C 0.0 **** 0.0
54764 C 80.3825 16.8872 10.2366 C 0.0 **** 0.0
54765 C 81.3219 15.6696 10.211 C 0.0 **** 0.0
54766 C 81.0893 14.904 8.85798 C 0.0 **** 0.0
54767 C 79.6481 15.0697 8.24405 C 0.0 **** 0.0
54768 C 78.1531 18.6748 11.129 C 0.0 **** 0.0
54769 C 77.3222 19.9249 10.7877 C 0.0 **** 0.0
54770 C 75.8059 19.5479 10.7555 C 0.0 **** 0.0
54771 C 80.5649 17.8725 11.4162 C 0.0 **** 0.0
54772 C 79.654 19.0948 11.1664 C 0.0 **** 0.0
54773 C 75.3129 14.6239 -10.1425 C 0.0 **** 0.0
54774 C 76.258 15.5289 -9.38269 C 0.0 **** 0.0
54775 C 75.7018 14.5913 -11.6391 C 0.0 **** 0.0
54776 O 78.2849 10.5597 4.00727 O 0.0 **** 0.0
54777 C 74.9954 20.7862 10.3844 C 0.0 **** 0.0
54778 C 75.2335 21.8811 11.3898 C 0.0 **** 0.0
54779 C 76.7062 22.2554 11.4365 C 0.0 **** 0.0
54780 C 77.5433 21.0106 11.8038 C 0.0 **** 0.0
54781 C 79.0144 21.4022 11.8166 C 0.0 **** 0.0
54782 C 79.2238 22.5248 12.8623 C 0.0 **** 0.0
54783 C 78.3452 23.7478 12.5859 C 0.0 **** 0.0
54784 C 76.8657 23.3296 12.5221 C 0.0 **** 0.0
54785 C 78.6413 24.8989 13.5529 C 0.0 **** 0.0
54786 C 80.1461 25.2461 13.6146 C 0.0 **** 0.0
54787 C 81.0272 24.0191 13.9585 C 0.0 **** 0.0
54788 C 80.7268 22.9253 12.916 C 0.0 **** 0.0
54789 C 81.6531 21.7386 13.1415 C 0.0 **** 0.0
54790 C 81.3624 20.6153 12.188 C 0.0 **** 0.0
54791 C 79.8908 20.1747 12.2156 C 0.0 **** 0.0
54792 C 83.153 22.2106 13.0175 C 0.0 **** 0.0
54793 C 83.4228 23.2682 14.0762 C 0.0 **** 0.0
54794 C 82.5228 24.4504 13.8975 C 0.0 **** 0.0
54795 C 82.0424 18.298 11.5176 C 0.0 **** 0.0
54796 C 82.3097 19.4685 12.4958 C 0.0 **** 0.0
54797 C 84.1752 21.1546 13.0949 C 0.0 **** 0.0
54798 C 83.7558 19.8814 12.2845 C 0.0 **** 0.0
54799 C 84.8516 18.788 12.4929 C 0.0 **** 0.0
54800 C 86.0736 19.2624 13.3146 C 0.0 **** 0.0
54801 C 86.6922 20.6149 12.87 C 0.0 **** 0.0
54802 C 85.5652 21.5552 12.6015 C 0.0 **** 0.0
54803 O 85.7493 22.551 11.9309 O 0.0 **** 0.0
54804 H 67.2201 18.405 -12.9244 H 0.0 **** 0.0
54805 H 67.5761 18.4812 -11.2169 H 0.0 **** 0.0
54806 H 68.6687 16.5054 -13.1086 H 0.0 **** 0.0
54807 H 68.8725 16.4397 -11.3536 H 0.0 **** 0.0
54808 H 66.4983 15.3288 -12.9955 H 0.0 **** 0.0
54809 H 65.4537 14.6023 -11.2243 H 0.0 **** 0.0
54810 H 66.2554 17.117 -9.71549 H 0.0 **** 0.0
54811 H 64.6837 16.4808 -10.3271 H 0.0 **** 0.0
54812 H 67.538 15.0939 -9.13805 H 0.0 **** 0.0
54813 H 68.7512 13.3796 -9.86366 H 0.0 **** 0.0
54814 H 66.5154 12.5293 -11.8251 H 0.0 **** 0.0
54815 H 68.2266 11.9489 -11.6909 H 0.0 **** 0.0
54816 H 68.0165 13.648 -13.3968 H 0.0 **** 0.0
54817 H 69.0653 14.1341 -12.0543 H 0.0 **** 0.0
54818 H 67.045 11.3468 -7.26928 H 0.0 **** 0.0
54819 H 65.3699 12.8347 -7.00142 H 0.0 **** 0.0
54820 H 65.0967 14.9695 -8.43919 H 0.0 **** 0.0
54821 H 65.0406 13.3801 -9.22403 H 0.0 **** 0.0
54822 H 68.9696 13.6768 -7.79446 H 0.0 **** 0.0
54823 H 67.7973 16.3299 -3.02674 H 0.0 **** 0.0
54824 H 68.679 16.1231 -4.59993 H 0.0 **** 0.0
54825 H 66.6681 17.4851 -5.07482 H 0.0 **** 0.0
54826 H 65.6201 16.4177 -4.13505 H 0.0 **** 0.0
54827 H 65.5065 16.0805 -6.73118 H 0.0 **** 0.0
54828 H 71.33 13.1785 -7.88213 H 0.0 **** 0.0
54829 H 70.6979 8.988 -6.65878 H 0.0 **** 0.0
54830 H 70.6306 8.5034 -8.33369 H 0.0 **** 0.0
54831 H 68.612 9.99549 -8.01432 H 0.0 **** 0.0
54832 H 72.9854 7.99402 -7.81342 H 0.0 **** 0.0
54833 H 73.3694 8.9357 -9.30896 H 0.0 **** 0.0
54834 H 75.3462 8.75931 -7.79523 H 0.0 **** 0.0
54835 H 74.3103 9.39661 -6.46754 H 0.0 **** 0.0
54836 H 72.9905 13.2664 -9.28454 H 0.0 **** 0.0
54837 H 73.9552 13.8778 -7.811 H 0.0 **** 0.0
54838 H 74.9027 12.4545 -10.371 H 0.0 **** 0.0
54839 H 76.4389 13.1836 -7.79262 H 0.0 **** 0.0
54840 H 77.2309 12.7085 -9.4265 H 0.0 **** 0.0
54841 H 76.8598 10.8038 -7.85931 H 0.0 **** 0.0
54842 H 76.1293 10.6043 -9.53711 H 0.0 **** 0.0
54843 H 72.9381 14.036 -5.73658 H 0.0 **** 0.0
54844 H 75.2719 10.8029 -0.799734 H 0.0 **** 0.0
54845 H 76.085 10.4165 1.7277 H 0.0 **** 0.0
54846 H 68.6358 13.1894 0.592129 H 0.0 **** 0.0
54847 H 77.9929 9.67247 7.71638 H 0.0 **** 0.0
54848 H 78.5219 8.82556 5.77229 H 0.0 **** 0.0
54849 H 76.8405 9.05747 3.66028 H 0.0 **** 0.0
54850 H 75.637 7.77485 5.40799 H 0.0 **** 0.0
54851 H 77.2432 6.95843 5.13364 H 0.0 **** 0.0
54852 H 77.6264 7.16314 7.64927 H 0.0 **** 0.0
54853 H 76.0744 6.19367 7.29354 H 0.0 **** 0.0
54854 H 74.6487 7.78327 7.98434 H 0.0 **** 0.0
54855 H 75.0105 9.73703 6.90591 H 0.0 **** 0.0
54856 H 76.6386 10.7288 9.42774 H 0.0 **** 0.0
54857 H 75.272 11.5331 8.64627 H 0.0 **** 0.0
54858 H 73.6433 9.85915 9.49715 H 0.0 **** 0.0
54859 H 74.6304 10.6718 10.7629 H 0.0 **** 0.0
54860 H 74.3071 7.94203 10.5712 H 0.0 **** 0.0
54861 H 75.5886 8.77532 11.4241 H 0.0 **** 0.0
54862 H 77.1067 8.32175 9.62613 H 0.0 **** 0.0
54863 H 67.3448 15.189 4.95777 H 0.0 **** 0.0
54864 H 66.4301 14.5088 2.782 H 0.0 **** 0.0
54865 H 68.6019 15.9502 1.13264 H 0.0 **** 0.0
54866 H 67.0703 15.2574 0.687986 H 0.0 **** 0.0
54867 H 66.4712 17.5236 0.637432 H 0.0 **** 0.0
54868 H 67.7293 17.9523 1.83685 H 0.0 **** 0.0
54869 H 65.0258 16.5541 2.45301 H 0.0 **** 0.0
54870 H 65.3999 18.2803 2.72139 H 0.0 **** 0.0
54871 H 65.7951 16.8154 4.84958 H 0.0 **** 0.0
54872 H 67.1597 17.8809 4.34516 H 0.0 **** 0.0
54873 H 70.6633 17.0801 6.12354 H 0.0 **** 0.0
54874 H 72.1442 17.9434 7.9204 H 0.0 **** 0.0
54875 H 77.4464 13.0524 8.08456 H 0.0 **** 0.0
54876 H 78.8598 14.1697 10.03 H 0.0 **** 0.0
54877 H 78.5372 15.982 11.3412 H 0.0 **** 0.0
54878 H 80.5599 17.4862 9.29981 H 0.0 **** 0.0
54879 H 81.1213 14.9996 11.0481 H 0.0 **** 0.0
54880 H 82.3755 15.9919 10.1809 H 0.0 **** 0.0
54881 H 81.3179 13.8337 8.98145 H 0.0 **** 0.0
54882 H 81.808 15.2893 8.09113 H 0.0 **** 0.0
54883 H 79.5294 14.2681 7.4985 H 0.0 **** 0.0
54884 H 79.5552 16.0523 7.71907 H 0.0 **** 0.0
54885 H 74.3293 15.1043 -10.096 H 0.0 **** 0.0
54886 H 76.1857 16.5679 -9.78958 H 0.0 **** 0.0
54887 H 77.3372 15.1794 -9.42626 H 0.0 **** 0.0
54888 H 75.9409 15.5773 -8.346 H 0.0 **** 0.0
54889 H 74.9262 14.1406 -12.2585 H 0.0 **** 0.0
54890 H 76.6727 14.045 -11.8203 H 0.0 **** 0.0
54891 H 75.8561 15.6386 -12.0218 H 0.0 **** 0.0
54892 H 78.8027 9.9166 3.41641 H 0.0 **** 0.0
54893 H 73.8894 20.5262 10.3468 H 0.0 **** 0.0
54894 H 74.5763 22.7213 11.2733 H 0.0 **** 0.0
54895 H 76.2911 24.2355 12.1756 H 0.0 **** 0.0
54896 H 78.0887 25.7883 13.2917 H 0.0 **** 0.0
54897 H 80.2776 26.0791 14.3393 H 0.0 **** 0.0
54898 H 84.5088 23.6821 14.0873 H 0.0 **** 0.0
54899 H 82.6907 25.1858 14.6662 H 0.0 **** 0.0
54900 H 82.5947 17.4032 11.8825 H 0.0 **** 0.0
54901 H 84.4546 17.8732 13.013 H 0.0 **** 0.0
54902 H 85.3014 18.474 11.4965 H 0.0 **** 0.0
54903 H 86.8617 18.4656 13.2005 H 0.0 **** 0.0
54904 H 85.8306 19.3298 14.3631 H 0.0 **** 0.0
54905 H 87.4033 20.4601 12.0168 H 0.0 **** 0.0
54906 H 87.26 21.0953 13.6764 H 0.0 **** 0.0
54907 C 105.308 74.5945 12.5162 C 0.0 **** 0.0
54908 C 104.71 73.2212 12.1814 C 0.0 **** 0.0
54909 C 103.547 73.319 11.1537 C 0.0 **** 0.0
54910 C 103.434 74.8029 10.6368 C 0.0 **** 0.0
54911 C 103.321 75.7827 11.8058 C 0.0 **** 0.0
54912 O 104.331 75.6009 12.8024 O 0.0 **** 0.0
54913 C 102.312 75.0352 9.59087 C 0.0 **** 0.0
54914 C 100.921 74.4523 9.98146 C 0.0 **** 0.0
54915 C 101.053 73.1003 10.7455 C 0.0 **** 0.0
54916 C 102.203 72.9036 11.7408 C 0.0 **** 0.0
54917 O 100.036 74.2852 8.89056 O 0.0 **** 0.0
54918 C 100.322 75.0377 7.70546 C 0.0 **** 0.0
54919 C 101.741 74.7825 7.14802 C 0.0 **** 0.0
54920 C 102.743 74.3998 8.27791 C 0.0 **** 0.0
54921 C 102.24 75.8494 6.23985 C 0.0 **** 0.0
54922 C 101.81 77.1805 6.33089 C 0.0 **** 0.0
54923 C 100.32 77.3546 6.67042 C 0.0 **** 0.0
54924 C 99.8913 76.5103 7.84855 C 0.0 **** 0.0
54925 C 100.058 78.8477 6.92174 C 0.0 **** 0.0
54926 C 100.335 79.5712 5.56297 C 0.0 **** 0.0
54927 C 101.809 79.5168 5.25015 C 0.0 **** 0.0
54928 C 102.225 78.0468 5.07713 C 0.0 **** 0.0
54929 C 103.749 77.9287 4.92086 C 0.0 **** 0.0
54930 C 104.09 76.4704 4.546 C 0.0 **** 0.0
54931 C 103.423 75.539 5.5233 C 0.0 **** 0.0
54932 O 102.214 80.2963 4.14755 O 0.0 **** 0.0
54933 C 101.917 81.674 4.38882 C 0.0 **** 0.0
54934 C 100.39 81.874 4.55369 C 0.0 **** 0.0
54935 C 99.7965 80.9823 5.6201 C 0.0 **** 0.0
54936 C 98.3889 76.6946 8.03083 C 0.0 **** 0.0
54937 C 98.0434 78.0484 8.5359 C 0.0 **** 0.0
54938 C 98.6653 79.1269 7.54533 C 0.0 **** 0.0
54939 C 96.5205 78.2382 8.73861 C 0.0 **** 0.0
54940 C 95.6172 77.3489 8.27437 C 0.0 **** 0.0
54941 C 96.0655 76.1576 7.50947 C 0.0 **** 0.0
54942 C 97.4315 75.7139 7.89804 C 0.0 **** 0.0
54943 C 94.1268 77.6086 8.48049 C 0.0 **** 0.0
54944 C 93.8795 79.0741 8.20473 C 0.0 **** 0.0
54945 C 94.7379 79.9345 9.04488 C 0.0 **** 0.0
54946 C 95.9837 79.5228 9.31018 C 0.0 **** 0.0
54947 C 96.8895 80.3666 10.183 C 0.0 **** 0.0
54948 C 96.2606 81.6305 10.8684 C 0.0 **** 0.0
54949 C 95.1747 82.2349 9.92121 C 0.0 **** 0.0
54950 C 94.1049 81.2256 9.51783 C 0.0 **** 0.0
54951 C 98.2481 80.8579 5.61186 C 0.0 **** 0.0
54952 C 97.6986 79.6477 6.42172 C 0.0 **** 0.0
54953 C 100.039 83.3053 4.85293 C 0.0 **** 0.0
54954 C 98.5107 83.4881 4.85848 C 0.0 **** 0.0
54955 S 97.5763 82.4859 6.07397 S 0.0 **** 0.0
54956 C 98.07 84.9208 4.92128 C 0.0 **** 0.0
54957 C 98.7026 85.77 3.84241 C 0.0 **** 0.0
54958 C 100.237 85.7031 3.98995 C 0.0 **** 0.0
54959 C 100.711 84.2389 3.80626 C 0.0 **** 0.0
54960 C 100.87 86.6422 2.88613 C 0.0 **** 0.0
54961 C 100.398 88.112 3.08455 C 0.0 **** 0.0
54962 C 98.8612 88.1452 2.96331 C 0.0 **** 0.0
54963 C 98.2534 87.2316 4.01282 C 0.0 **** 0.0
54964 C 98.3121 89.6231 3.04806 C 0.0 **** 0.0
54965 C 99.1255 90.6193 2.21954 C 0.0 **** 0.0
54966 C 100.622 90.4251 2.32069 C 0.0 **** 0.0
54967 C 101.023 88.9947 2.0378 C 0.0 **** 0.0
54968 C 102.247 84.0382 3.7212 C 0.0 **** 0.0
54969 C 102.472 82.5752 3.33866 C 0.0 **** 0.0
54970 C 102.396 86.5461 2.92453 C 0.0 **** 0.0
54971 C 103.0 85.1153 2.83467 C 0.0 **** 0.0
54972 C 102.516 88.8733 1.92034 C 0.0 **** 0.0
54973 C 102.943 87.4499 1.78449 C 0.0 **** 0.0
54974 C 101.502 91.5394 1.72175 C 0.0 **** 0.0
54975 C 102.268 91.0086 0.467764 C 0.0 **** 0.0
54976 C 102.994 89.6456 0.730678 C 0.0 **** 0.0
54977 O 98.6533 90.5375 0.895964 O 0.0 **** 0.0
54978 C 97.4978 91.3481 0.850742 C 0.0 **** 0.0
54979 C 96.4987 91.0593 2.03985 C 0.0 **** 0.0
54980 C 96.8375 89.6594 2.65452 C 0.0 **** 0.0
54981 C 94.9827 91.2702 1.73704 C 0.0 **** 0.0
54982 C 94.8728 92.4282 0.741051 C 0.0 **** 0.0
54983 C 95.5883 92.1177 -0.605592 C 0.0 **** 0.0
54984 C 96.7631 91.1294 -0.439036 C 0.0 **** 0.0
54985 C 97.71 91.1511 -1.70973 C 0.0 **** 0.0
54986 C 97.0208 91.6603 -2.94641 C 0.0 **** 0.0
54987 C 96.3193 92.9951 -2.73426 C 0.0 **** 0.0
54988 N 96.0672 93.3167 -1.29252 N 0.0 **** 0.0
54989 C 104.47 85.296 3.16038 C 0.0 **** 0.0
54990 C 105.169 86.1613 2.08693 C 0.0 **** 0.0
54991 C 104.444 87.4657 1.87629 C 0.0 **** 0.0
54992 O 106.391 86.5569 2.68799 O 0.0 **** 0.0
54993 C 107.22 85.4158 2.95026 C 0.0 **** 0.0
54994 C 106.46 84.3934 3.86907 C 0.0 **** 0.0
54995 O 105.168 84.0849 3.35855 O 0.0 **** 0.0
54996 C 106.406 84.8077 5.36106 C 0.0 **** 0.0
54997 C 107.156 86.0696 5.66382 C 0.0 **** 0.0
54998 C 108.587 85.9433 5.16025 C 0.0 **** 0.0
54999 C 108.541 85.9426 3.59888 C 0.0 **** 0.0
55000 C 104.532 89.5954 0.555915 C 0.0 **** 0.0
55001 C 105.059 88.2147 0.684292 C 0.0 **** 0.0
55002 C 103.277 92.0843 0.0777551 C 0.0 **** 0.0
55003 C 104.192 91.5528 -1.04416 C 0.0 **** 0.0
55004 C 104.965 90.2523 -0.774794 C 0.0 **** 0.0
55005 C 102.485 93.2671 -0.418731 C 0.0 **** 0.0
55006 C 101.773 93.9559 0.774346 C 0.0 **** 0.0
55007 C 100.796 92.8636 1.37251 C 0.0 **** 0.0
55008 O 105.02 92.6183 -1.4713 O 0.0 **** 0.0
55009 C 104.24 93.4942 -2.16854 C 0.0 **** 0.0
55010 C 103.379 94.2338 -1.1019 C 0.0 **** 0.0
55011 C 100.998 95.2405 0.430323 C 0.0 **** 0.0
55012 C 101.37 95.8818 -0.942723 C 0.0 **** 0.0
55013 C 102.552 95.2784 -1.76272 C 0.0 **** 0.0
55014 C 101.358 97.4236 -0.878809 C 0.0 **** 0.0
55015 C 100.11 97.8489 -0.0768042 C 0.0 **** 0.0
55016 C 100.287 97.5054 1.42227 C 0.0 **** 0.0
55017 C 101.19 96.2294 1.54486 C 0.0 **** 0.0
55018 C 103.493 96.3026 -2.37737 C 0.0 **** 0.0
55019 C 104.349 95.6324 -3.47715 C 0.0 **** 0.0
55020 C 105.152 94.4689 -2.9309 C 0.0 **** 0.0
55021 C 101.428 97.9448 -2.3291 C 0.0 **** 0.0
55022 C 102.861 97.6913 -2.77021 C 0.0 **** 0.0
55023 C 97.3898 82.7187 11.0571 C 0.0 **** 0.0
55024 C 96.8943 83.9146 11.9022 C 0.0 **** 0.0
55025 C 98.6111 82.1281 11.81 C 0.0 **** 0.0
55026 O 96.1343 89.5533 3.86475 O 0.0 **** 0.0
55027 C 106.046 93.8133 -3.99777 C 0.0 **** 0.0
55028 C 107.019 94.8907 -4.57776 C 0.0 **** 0.0
55029 C 106.198 95.9982 -5.2279 C 0.0 **** 0.0
55030 C 105.243 96.6439 -4.18055 C 0.0 **** 0.0
55031 C 104.543 97.9044 -4.60817 C 0.0 **** 0.0
55032 C 104.845 98.3429 -6.07287 C 0.0 **** 0.0
55033 C 106.338 98.3411 -6.31547 C 0.0 **** 0.0
55034 C 107.077 97.0522 -5.91883 C 0.0 **** 0.0
55035 C 106.671 98.7588 -7.77502 C 0.0 **** 0.0
55036 C 106.003 100.092 -8.12076 C 0.0 **** 0.0
55037 C 104.542 100.135 -7.75365 C 0.0 **** 0.0
55038 C 104.384 99.7801 -6.26426 C 0.0 **** 0.0
55039 C 102.972 100.072 -5.78244 C 0.0 **** 0.0
55040 C 102.739 99.6002 -4.39567 C 0.0 **** 0.0
55041 C 103.144 98.1181 -4.22659 C 0.0 **** 0.0
55042 C 102.721 101.592 -5.9035 C 0.0 **** 0.0
55043 C 102.735 101.864 -7.41361 C 0.0 **** 0.0
55044 C 104.071 101.582 -7.98112 C 0.0 **** 0.0
55045 C 101.163 99.4356 -2.41718 C 0.0 **** 0.0
55046 C 101.339 99.9137 -3.90147 C 0.0 **** 0.0
55047 C 101.389 102.036 -5.34855 C 0.0 **** 0.0
55048 C 100.957 101.383 -4.02313 C 0.0 **** 0.0
55049 C 99.4841 101.679 -3.60199 C 0.0 **** 0.0
55050 C 98.9362 102.925 -4.29618 C 0.0 **** 0.0
55051 C 99.9801 104.039 -4.48619 C 0.0 **** 0.0
55052 C 101.189 103.516 -5.20314 C 0.0 **** 0.0
55053 O 102.087 104.331 -5.502 O 0.0 **** 0.0
55054 H 106.006 74.9025 11.6634 H 0.0 **** 0.0
55055 H 105.985 74.4234 13.3731 H 0.0 **** 0.0
55056 H 105.541 72.6038 11.8124 H 0.0 **** 0.0
55057 H 104.297 72.7666 13.0743 H 0.0 **** 0.0
55058 H 103.906 72.6448 10.3355 H 0.0 **** 0.0
55059 H 104.406 75.0259 10.1177 H 0.0 **** 0.0
55060 H 102.343 75.7416 12.3314 H 0.0 **** 0.0
55061 H 103.484 76.799 11.4071 H 0.0 **** 0.0
55062 H 102.316 76.1362 9.42484 H 0.0 **** 0.0
55063 H 100.439 75.1133 10.7434 H 0.0 **** 0.0
55064 H 101.07 72.3155 9.98394 H 0.0 **** 0.0
55065 H 100.135 72.9327 11.3319 H 0.0 **** 0.0
55066 H 102.308 71.8166 12.1309 H 0.0 **** 0.0
55067 H 101.995 73.501 12.6842 H 0.0 **** 0.0
55068 H 99.6217 74.6859 6.90285 H 0.0 **** 0.0
55069 H 101.59 73.8822 6.4876 H 0.0 **** 0.0
55070 H 103.761 74.667 7.99082 H 0.0 **** 0.0
55071 H 102.775 73.2755 8.4418 H 0.0 **** 0.0
55072 H 100.373 76.9338 8.75978 H 0.0 **** 0.0
55073 H 104.128 78.6561 4.14944 H 0.0 **** 0.0
55074 H 104.187 78.1533 5.86607 H 0.0 **** 0.0
55075 H 105.181 76.4565 4.52706 H 0.0 **** 0.0
55076 H 103.799 76.2008 3.54203 H 0.0 **** 0.0
55077 H 103.889 74.542 5.6007 H 0.0 **** 0.0
55078 H 98.5208 78.1723 9.49533 H 0.0 **** 0.0
55079 H 96.0931 76.4588 6.45413 H 0.0 **** 0.0
55080 H 95.3685 75.2763 7.6413 H 0.0 **** 0.0
55081 H 97.6641 74.6767 7.67573 H 0.0 **** 0.0
55082 H 93.5089 76.9204 7.81207 H 0.0 **** 0.0
55083 H 93.7938 77.2753 9.50519 H 0.0 **** 0.0
55084 H 92.8182 79.2871 8.39464 H 0.0 **** 0.0
55085 H 94.1237 79.2815 7.16366 H 0.0 **** 0.0
55086 H 97.1051 79.6782 11.0418 H 0.0 **** 0.0
55087 H 97.7918 80.6186 9.64252 H 0.0 **** 0.0
55088 H 95.8548 81.3778 11.8824 H 0.0 **** 0.0
55089 H 95.619 82.5881 8.92872 H 0.0 **** 0.0
55090 H 94.5907 83.0148 10.3496 H 0.0 **** 0.0
55091 H 93.6139 81.7099 8.6516 H 0.0 **** 0.0
55092 H 93.3108 81.0802 10.3144 H 0.0 **** 0.0
55093 H 97.5953 78.7586 5.71908 H 0.0 **** 0.0
55094 H 96.8993 84.9728 4.76018 H 0.0 **** 0.0
55095 H 98.4708 87.6111 5.01744 H 0.0 **** 0.0
55096 H 103.573 82.3175 3.18388 H 0.0 **** 0.0
55097 H 97.8207 92.3763 0.938341 H 0.0 **** 0.0
55098 H 96.7076 91.8941 2.73808 H 0.0 **** 0.0
55099 H 96.5825 88.8469 1.92925 H 0.0 **** 0.0
55100 H 94.5362 90.3105 1.41219 H 0.0 **** 0.0
55101 H 94.556 91.6212 2.68285 H 0.0 **** 0.0
55102 H 95.3431 93.3021 1.22581 H 0.0 **** 0.0
55103 H 93.8387 92.6027 0.57264 H 0.0 **** 0.0
55104 H 94.7897 91.6175 -1.24119 H 0.0 **** 0.0
55105 H 96.283 90.1303 -0.390154 H 0.0 **** 0.0
55106 H 98.0545 90.0596 -1.90479 H 0.0 **** 0.0
55107 H 98.6561 91.7209 -1.55718 H 0.0 **** 0.0
55108 H 96.3189 90.8802 -3.25094 H 0.0 **** 0.0
55109 H 97.7551 91.7288 -3.74397 H 0.0 **** 0.0
55110 H 95.3415 93.0869 -3.25056 H 0.0 **** 0.0
55111 H 96.9017 93.7879 -3.24073 H 0.0 **** 0.0
55112 H 95.4199 94.1361 -1.23181 H 0.0 **** 0.0
55113 H 107.423 84.8893 2.00704 H 0.0 **** 0.0
55114 H 107.064 83.4438 3.80137 H 0.0 **** 0.0
55115 H 105.35 84.952 5.72933 H 0.0 **** 0.0
55116 H 106.808 83.9857 6.00469 H 0.0 **** 0.0
55117 H 107.149 86.2894 6.74748 H 0.0 **** 0.0
55118 H 106.585 86.8473 5.08869 H 0.0 **** 0.0
55119 H 109.219 85.0965 5.60464 H 0.0 **** 0.0
55120 H 109.125 86.8749 5.46782 H 0.0 **** 0.0
55121 H 109.405 85.3293 3.24104 H 0.0 **** 0.0
55122 H 108.696 87.0159 3.32869 H 0.0 **** 0.0
55123 H 106.181 88.2265 0.669889 H 0.0 **** 0.0
55124 H 104.776 89.5904 -1.63306 H 0.0 **** 0.0
55125 H 99.9726 92.6891 0.702359 H 0.0 **** 0.0
55126 H 99.8875 95.0352 0.417267 H 0.0 **** 0.0
55127 H 100.503 95.6493 -1.62869 H 0.0 **** 0.0
55128 H 102.241 97.8141 -0.317129 H 0.0 **** 0.0
55129 H 99.2439 97.3189 -0.493729 H 0.0 **** 0.0
55130 H 99.8546 98.9832 -0.13198 H 0.0 **** 0.0
55131 H 99.3081 97.2862 1.84102 H 0.0 **** 0.0
55132 H 100.715 98.4248 1.94998 H 0.0 **** 0.0
55133 H 101.096 95.7237 2.56956 H 0.0 **** 0.0
55134 H 102.277 96.5144 1.56422 H 0.0 **** 0.0
55135 H 97.6901 83.0898 10.0733 H 0.0 **** 0.0
55136 H 97.6475 84.7238 11.796 H 0.0 **** 0.0
55137 H 96.7834 83.6134 12.9284 H 0.0 **** 0.0
55138 H 95.9953 84.4097 11.5599 H 0.0 **** 0.0
55139 H 99.1939 81.4285 11.1628 H 0.0 **** 0.0
55140 H 98.2798 81.6356 12.7749 H 0.0 **** 0.0
55141 H 99.3396 82.9696 12.0529 H 0.0 **** 0.0
55142 H 95.1608 89.2137 3.6672 H 0.0 **** 0.0
55143 H 106.559 92.9268 -3.54834 H 0.0 **** 0.0
55144 H 107.552 94.39 -5.41988 H 0.0 **** 0.0
55145 H 107.649 96.5918 -6.74848 H 0.0 **** 0.0
55146 H 107.784 98.8582 -7.91152 H 0.0 **** 0.0
55147 H 106.193 100.422 -9.17855 H 0.0 **** 0.0
55148 H 102.442 102.941 -7.66587 H 0.0 **** 0.0
55149 H 104.089 101.868 -9.07814 H 0.0 **** 0.0
55150 H 100.137 99.6783 -2.08547 H 0.0 **** 0.0
55151 H 98.7848 100.853 -3.77994 H 0.0 **** 0.0
55152 H 99.5315 101.817 -2.52356 H 0.0 **** 0.0
55153 H 98.0272 103.325 -3.83327 H 0.0 **** 0.0
55154 H 98.554 102.596 -5.30598 H 0.0 **** 0.0
55155 H 100.212 104.465 -3.45154 H 0.0 **** 0.0
55156 H 99.5172 104.817 -5.16598 H 0.0 **** 0.0
55157 C 29.5894 121.45 31.8805 C 0.0 **** 0.0
55158 C 29.8846 120.508 33.0724 C 0.0 **** 0.0
55159 C 29.3955 119.06 32.8306 C 0.0 **** 0.0
55160 C 29.8094 118.517 31.3883 C 0.0 **** 0.0
55161 C 29.6646 119.666 30.3447 C 0.0 **** 0.0
55162 O 30.2157 120.93 30.725 O 0.0 **** 0.0
55163 C 28.9842 117.236 30.97 C 0.0 **** 0.0
55164 C 28.4219 116.471 32.1811 C 0.0 **** 0.0
55165 C 27.5348 117.372 33.1058 C 0.0 **** 0.0
55166 C 27.8956 118.878 32.9276 C 0.0 **** 0.0
55167 O 29.4271 115.826 32.8935 O 0.0 **** 0.0
55168 C 30.1321 114.785 32.1701 C 0.0 **** 0.0
55169 C 30.5996 115.247 30.7841 C 0.0 **** 0.0
55170 C 29.662 116.234 30.0207 C 0.0 **** 0.0
55171 C 31.0423 114.041 29.9554 C 0.0 **** 0.0
55172 C 30.1694 112.865 29.9174 C 0.0 **** 0.0
55173 C 29.8953 112.308 31.3085 C 0.0 **** 0.0
55174 C 29.2717 113.452 32.1404 C 0.0 **** 0.0
55175 C 28.8747 111.128 31.2334 C 0.0 **** 0.0
55176 C 29.3588 110.045 30.3126 C 0.0 **** 0.0
55177 C 29.7071 110.598 28.9255 C 0.0 **** 0.0
55178 C 30.7377 111.737 29.0596 C 0.0 **** 0.0
55179 C 31.1859 112.293 27.6989 C 0.0 **** 0.0
55180 C 32.2878 113.347 27.8326 C 0.0 **** 0.0
55181 C 32.0533 114.262 28.9794 C 0.0 **** 0.0
55182 O 30.2594 109.616 28.0762 O 0.0 **** 0.0
55183 C 29.8619 108.256 28.2732 C 0.0 **** 0.0
55184 C 28.4541 108.116 28.8971 C 0.0 **** 0.0
55185 C 28.2683 108.963 30.1617 C 0.0 **** 0.0
55186 C 28.9827 112.837 33.5746 C 0.0 **** 0.0
55187 C 28.1068 111.569 33.6158 C 0.0 **** 0.0
55188 C 28.6401 110.506 32.6292 C 0.0 **** 0.0
55189 C 27.8251 111.016 35.0449 C 0.0 **** 0.0
55190 C 28.5943 111.428 36.0718 C 0.0 **** 0.0
55191 C 29.5057 112.613 35.9755 C 0.0 **** 0.0
55192 C 29.5672 113.331 34.696 C 0.0 **** 0.0
55193 C 28.252 110.974 37.4923 C 0.0 **** 0.0
55194 C 27.6579 109.572 37.4595 C 0.0 **** 0.0
55195 C 26.5133 109.526 36.4602 C 0.0 **** 0.0
55196 C 26.5821 110.245 35.3386 C 0.0 **** 0.0
55197 C 25.374 110.27 34.3843 C 0.0 **** 0.0
55198 C 24.0564 109.74 34.9938 C 0.0 **** 0.0
55199 C 24.3308 108.44 35.7883 C 0.0 **** 0.0
55200 C 25.3757 108.643 36.854 C 0.0 **** 0.0
55201 C 28.1131 108.178 31.4645 C 0.0 **** 0.0
55202 C 27.8451 109.179 32.6103 C 0.0 **** 0.0
55203 C 27.9969 106.661 29.0335 C 0.0 **** 0.0
55204 C 26.6465 106.511 29.7848 C 0.0 **** 0.0
55205 S 26.5778 107.201 31.4327 S 0.0 **** 0.0
55206 C 26.2168 105.052 29.8501 C 0.0 **** 0.0
55207 C 26.264 104.364 28.4765 C 0.0 **** 0.0
55208 C 27.5853 104.587 27.7208 C 0.0 **** 0.0
55209 C 28.0014 106.012 27.6187 C 0.0 **** 0.0
55210 C 27.3995 104.018 26.2915 C 0.0 **** 0.0
55211 C 27.089 102.519 26.3662 C 0.0 **** 0.0
55212 C 25.919 102.213 27.2969 C 0.0 **** 0.0
55213 C 26.0271 102.862 28.6871 C 0.0 **** 0.0
55214 C 25.6257 100.656 27.2063 C 0.0 **** 0.0
55215 C 25.0765 100.48 25.8275 C 0.0 **** 0.0
55216 C 26.2111 100.578 24.8031 C 0.0 **** 0.0
55217 C 26.6961 102.033 24.9216 C 0.0 **** 0.0
55218 C 29.4312 106.044 27.0327 C 0.0 **** 0.0
55219 C 29.9601 107.531 26.9194 C 0.0 **** 0.0
55220 C 28.4216 104.488 25.241 C 0.0 **** 0.0
55221 C 29.7331 105.016 25.8875 C 0.0 **** 0.0
55222 C 27.5457 102.558 23.7618 C 0.0 **** 0.0
55223 C 28.7432 103.365 24.2159 C 0.0 **** 0.0
55224 C 25.7654 100.295 23.3425 C 0.0 **** 0.0
55225 C 26.7381 100.7 22.2144 C 0.0 **** 0.0
55226 C 27.9205 101.56 22.6712 C 0.0 **** 0.0
55227 O 24.2915 99.3325 25.77 O 0.0 **** 0.0
55228 C 23.0171 99.6722 26.3424 C 0.0 **** 0.0
55229 C 23.1962 99.9438 27.8797 C 0.0 **** 0.0
55230 C 24.687 99.958 28.2584 C 0.0 **** 0.0
55231 C 22.4491 98.9646 28.7786 C 0.0 **** 0.0
55232 C 20.9975 98.9499 28.3767 C 0.0 **** 0.0
55233 C 20.7967 98.2811 26.9963 C 0.0 **** 0.0
55234 C 21.9291 98.6035 25.9146 C 0.0 **** 0.0
55235 C 21.3277 98.9327 24.5783 C 0.0 **** 0.0
55236 C 20.2378 97.9 24.1879 C 0.0 **** 0.0
55237 C 19.1208 97.83 25.2756 C 0.0 **** 0.0
55238 N 19.4131 98.5614 26.4774 N 0.0 **** 0.0
55239 C 30.6291 105.593 24.7898 C 0.0 **** 0.0
55240 C 30.7972 104.632 23.5845 C 0.0 **** 0.0
55241 C 29.5085 104.007 23.0213 C 0.0 **** 0.0
55242 O 31.627 105.2 22.5734 O 0.0 **** 0.0
55243 C 32.8927 105.499 23.1138 C 0.0 **** 0.0
55244 C 32.704 106.458 24.3423 C 0.0 **** 0.0
55245 O 31.9217 105.874 25.3433 O 0.0 **** 0.0
55246 C 32.1146 107.826 23.8911 C 0.0 **** 0.0
55247 C 32.3864 108.159 22.4056 C 0.0 **** 0.0
55248 C 33.779 107.67 22.0436 C 0.0 **** 0.0
55249 C 33.8656 106.106 22.052 C 0.0 **** 0.0
55250 C 28.5908 102.262 21.4869 C 0.0 **** 0.0
55251 C 29.8479 102.978 21.9347 C 0.0 **** 0.0
55252 C 27.3585 99.5465 21.4252 C 0.0 **** 0.0
55253 C 27.9777 100.032 20.0926 C 0.0 **** 0.0
55254 C 28.9489 101.229 20.3314 C 0.0 **** 0.0
55255 C 26.4642 98.3721 21.1793 C 0.0 **** 0.0
55256 C 25.896 97.8748 22.5252 C 0.0 **** 0.0
55257 C 25.0245 98.9894 23.0994 C 0.0 **** 0.0
55258 O 28.6824 98.952 19.4842 O 0.0 **** 0.0
55259 C 27.7764 97.9417 19.0978 C 0.0 **** 0.0
55260 C 27.2137 97.3273 20.3773 C 0.0 **** 0.0
55261 C 25.2357 96.4665 22.4937 C 0.0 **** 0.0
55262 C 25.8618 95.4714 21.4422 C 0.0 **** 0.0
55263 C 26.3428 96.0971 20.1305 C 0.0 **** 0.0
55264 C 24.9058 94.3413 21.0371 C 0.0 **** 0.0
55265 C 24.0044 93.9538 22.2135 C 0.0 **** 0.0
55266 C 23.081 95.1392 22.5929 C 0.0 **** 0.0
55267 C 23.7322 96.5189 22.3364 C 0.0 **** 0.0
55268 C 27.0868 95.0533 19.2657 C 0.0 **** 0.0
55269 C 27.5538 95.6541 17.9618 C 0.0 **** 0.0
55270 C 28.4752 96.8856 18.1883 C 0.0 **** 0.0
55271 C 25.7488 93.2271 20.3492 C 0.0 **** 0.0
55272 C 26.2844 93.7591 19.0505 C 0.0 **** 0.0
55273 C 22.9014 109.563 33.9174 C 0.0 **** 0.0
55274 C 23.0572 108.319 33.038 C 0.0 **** 0.0
55275 C 21.5115 109.594 34.5933 C 0.0 **** 0.0
55276 O 24.8112 100.45 29.5739 O 0.0 **** 0.0
55277 C 28.8874 97.4287 16.8404 C 0.0 **** 0.0
55278 C 29.5302 96.3573 15.916 C 0.0 **** 0.0
55279 C 28.6081 95.1905 15.7257 C 0.0 **** 0.0
55280 C 28.2363 94.5574 17.0915 C 0.0 **** 0.0
55281 C 27.3353 93.3218 16.8583 C 0.0 **** 0.0
55282 C 28.0319 92.3338 15.9833 C 0.0 **** 0.0
55283 C 28.3155 92.9078 14.5818 C 0.0 **** 0.0
55284 C 29.2194 94.1472 14.7706 C 0.0 **** 0.0
55285 C 29.1031 91.8914 13.7463 C 0.0 **** 0.0
55286 C 28.3483 90.6144 13.6085 C 0.0 **** 0.0
55287 C 27.99 90.0076 14.9508 C 0.0 **** 0.0
55288 C 27.2113 90.9886 15.8271 C 0.0 **** 0.0
55289 C 27.0162 90.3784 17.2016 C 0.0 **** 0.0
55290 C 26.3188 91.3633 18.1296 C 0.0 **** 0.0
55291 C 27.099 92.7159 18.2601 C 0.0 **** 0.0
55292 C 26.3244 89.0193 17.155 C 0.0 **** 0.0
55293 C 26.9782 88.0734 16.1025 C 0.0 **** 0.0
55294 C 27.145 88.7364 14.7479 C 0.0 **** 0.0
55295 C 25.1017 91.7937 20.2302 C 0.0 **** 0.0
55296 C 26.0633 90.8068 19.5403 C 0.0 **** 0.0
55297 C 26.3712 88.3978 18.5777 C 0.0 **** 0.0
55298 C 25.5742 89.3407 19.5557 C 0.0 **** 0.0
55299 C 25.5926 88.799 21.0027 C 0.0 **** 0.0
55300 C 25.9236 87.314 21.1521 C 0.0 **** 0.0
55301 C 25.3587 86.4552 20.014 C 0.0 **** 0.0
55302 C 25.8326 86.9705 18.7098 C 0.0 **** 0.0
55303 O 25.8374 86.2142 17.7674 O 0.0 **** 0.0
55304 H 29.9835 122.463 32.0557 H 0.0 **** 0.0
55305 H 28.477 121.498 31.7259 H 0.0 **** 0.0
55306 H 30.9658 120.541 33.2894 H 0.0 **** 0.0
55307 H 29.3285 120.905 33.8874 H 0.0 **** 0.0
55308 H 29.8656 118.435 33.6257 H 0.0 **** 0.0
55309 H 30.9028 118.3 31.4353 H 0.0 **** 0.0
55310 H 28.6225 119.837 30.0777 H 0.0 **** 0.0
55311 H 30.1023 119.286 29.3796 H 0.0 **** 0.0
55312 H 28.0956 117.581 30.418 H 0.0 **** 0.0
55313 H 27.678 115.714 31.8239 H 0.0 **** 0.0
55314 H 27.7685 117.095 34.1087 H 0.0 **** 0.0
55315 H 26.4431 117.232 32.911 H 0.0 **** 0.0
55316 H 27.3941 119.451 33.7477 H 0.0 **** 0.0
55317 H 27.4245 119.239 31.9869 H 0.0 **** 0.0
55318 H 31.0505 114.531 32.7614 H 0.0 **** 0.0
55319 H 31.5579 115.88 31.0288 H 0.0 **** 0.0
55320 H 28.9241 115.638 29.3961 H 0.0 **** 0.0
55321 H 30.2861 116.811 29.3144 H 0.0 **** 0.0
55322 H 28.2848 113.668 31.7492 H 0.0 **** 0.0
55323 H 31.5543 111.45 27.0184 H 0.0 **** 0.0
55324 H 30.3027 112.784 27.203 H 0.0 **** 0.0
55325 H 32.3658 113.943 26.8977 H 0.0 **** 0.0
55326 H 33.2271 112.812 27.9664 H 0.0 **** 0.0
55327 H 32.6713 115.178 29.098 H 0.0 **** 0.0
55328 H 27.1432 111.942 33.2147 H 0.0 **** 0.0
55329 H 30.5176 112.254 36.2245 H 0.0 **** 0.0
55330 H 29.1996 113.37 36.7342 H 0.0 **** 0.0
55331 H 30.1333 114.274 34.6491 H 0.0 **** 0.0
55332 H 29.1699 111.029 38.13 H 0.0 **** 0.0
55333 H 27.4595 111.665 37.9079 H 0.0 **** 0.0
55334 H 27.3819 109.285 38.5263 H 0.0 **** 0.0
55335 H 28.4847 108.878 37.1543 H 0.0 **** 0.0
55336 H 25.0937 111.314 34.1853 H 0.0 **** 0.0
55337 H 25.5862 109.722 33.4688 H 0.0 **** 0.0
55338 H 23.715 110.483 35.7978 H 0.0 **** 0.0
55339 H 24.6402 107.627 35.0689 H 0.0 **** 0.0
55340 H 23.3424 108.201 36.2813 H 0.0 **** 0.0
55341 H 25.8355 107.647 37.0955 H 0.0 **** 0.0
55342 H 24.8858 109.012 37.7883 H 0.0 **** 0.0
55343 H 28.0678 108.668 33.5951 H 0.0 **** 0.0
55344 H 25.1743 104.974 30.2556 H 0.0 **** 0.0
55345 H 25.0949 102.743 29.2228 H 0.0 **** 0.0
55346 H 31.015 107.514 26.6574 H 0.0 **** 0.0
55347 H 22.5888 100.625 25.9403 H 0.0 **** 0.0
55348 H 22.8628 100.995 28.0747 H 0.0 **** 0.0
55349 H 25.0302 98.8817 28.3363 H 0.0 **** 0.0
55350 H 22.9004 97.966 28.6455 H 0.0 **** 0.0
55351 H 22.6076 99.2621 29.8373 H 0.0 **** 0.0
55352 H 20.6185 100.016 28.2502 H 0.0 **** 0.0
55353 H 20.4121 98.3841 29.1847 H 0.0 **** 0.0
55354 H 20.8631 97.181 27.1949 H 0.0 **** 0.0
55355 H 22.5476 97.6964 25.7016 H 0.0 **** 0.0
55356 H 20.8029 99.9045 24.6409 H 0.0 **** 0.0
55357 H 22.1158 99.0056 23.7778 H 0.0 **** 0.0
55358 H 20.6561 96.8973 24.0852 H 0.0 **** 0.0
55359 H 19.7964 98.1768 23.2044 H 0.0 **** 0.0
55360 H 18.9204 96.7799 25.5806 H 0.0 **** 0.0
55361 H 18.1424 98.187 24.8413 H 0.0 **** 0.0
55362 H 19.3285 99.5838 26.3838 H 0.0 **** 0.0
55363 H 33.3335 104.59 23.5521 H 0.0 **** 0.0
55364 H 33.6944 106.599 24.7967 H 0.0 **** 0.0
55365 H 31.0184 107.925 24.0888 H 0.0 **** 0.0
55366 H 32.6255 108.631 24.5325 H 0.0 **** 0.0
55367 H 32.2909 109.261 22.2365 H 0.0 **** 0.0
55368 H 31.6549 107.674 21.7501 H 0.0 **** 0.0
55369 H 34.5305 108.13 22.7576 H 0.0 **** 0.0
55370 H 33.9755 108.032 20.9826 H 0.0 **** 0.0
55371 H 34.9262 105.771 22.3521 H 0.0 **** 0.0
55372 H 33.6598 105.721 21.0149 H 0.0 **** 0.0
55373 H 30.3008 103.489 21.0882 H 0.0 **** 0.0
55374 H 29.1565 101.777 19.3773 H 0.0 **** 0.0
55375 H 24.2593 99.2172 22.3031 H 0.0 **** 0.0
55376 H 25.5169 96.09 23.4949 H 0.0 **** 0.0
55377 H 26.7875 95.0519 21.9475 H 0.0 **** 0.0
55378 H 24.2382 94.7199 20.2684 H 0.0 **** 0.0
55379 H 24.7153 93.7123 23.06 H 0.0 **** 0.0
55380 H 23.3973 93.0527 22.0233 H 0.0 **** 0.0
55381 H 22.7072 95.0259 23.6634 H 0.0 **** 0.0
55382 H 22.1535 95.1251 21.9691 H 0.0 **** 0.0
55383 H 23.2842 97.1934 23.0811 H 0.0 **** 0.0
55384 H 23.4097 96.7994 21.3122 H 0.0 **** 0.0
55385 H 22.9571 110.431 33.22 H 0.0 **** 0.0
55386 H 22.3672 108.334 32.1702 H 0.0 **** 0.0
55387 H 22.8311 107.358 33.6042 H 0.0 **** 0.0
55388 H 24.1347 108.298 32.7276 H 0.0 **** 0.0
55389 H 21.1731 110.583 34.9857 H 0.0 **** 0.0
55390 H 21.4486 108.86 35.4149 H 0.0 **** 0.0
55391 H 20.6689 109.327 33.891 H 0.0 **** 0.0
55392 H 25.8216 100.474 29.7254 H 0.0 **** 0.0
55393 H 29.5448 98.2885 16.9857 H 0.0 **** 0.0
55394 H 29.7818 96.8127 14.9432 H 0.0 **** 0.0
55395 H 29.4116 94.5627 13.7796 H 0.0 **** 0.0
55396 H 29.2968 92.3643 12.7347 H 0.0 **** 0.0
55397 H 28.919 89.8642 12.9974 H 0.0 **** 0.0
55398 H 27.9302 87.5832 16.4489 H 0.0 **** 0.0
55399 H 27.6518 88.0325 14.0417 H 0.0 **** 0.0
55400 H 24.7544 91.4419 21.2026 H 0.0 **** 0.0
55401 H 26.3219 89.3454 21.6414 H 0.0 **** 0.0
55402 H 24.6088 89.0033 21.5167 H 0.0 **** 0.0
55403 H 25.5163 86.9045 22.1082 H 0.0 **** 0.0
55404 H 26.9993 87.2289 21.1582 H 0.0 **** 0.0
55405 H 24.2297 86.5247 20.0018 H 0.0 **** 0.0
55406 H 25.5919 85.3715 20.2031 H 0.0 **** 0.0
55407 C 90.3374 57.1677 61.3746 C 0.0 **** 0.0
55408 C 91.3305 57.3734 60.2163 C 0.0 **** 0.0
55409 C 90.7185 56.9082 58.8793 C 0.0 **** 0.0
55410 C 90.0397 55.5463 59.0569 C 0.0 **** 0.0
55411 C 89.0343 55.6028 60.2072 C 0.0 **** 0.0
55412 O 89.0437 56.8414 60.9344 O 0.0 **** 0.0
55413 C 91.1519 54.4509 59.3177 C 0.0 **** 0.0
55414 C 92.4499 54.6378 58.4797 C 0.0 **** 0.0
55415 C 92.2972 55.5782 57.284 C 0.0 **** 0.0
55416 C 91.8387 56.9556 57.7679 C 0.0 **** 0.0
55417 O 92.9745 53.4499 57.9828 O 0.0 **** 0.0
55418 C 93.1116 52.4191 58.9515 C 0.0 **** 0.0
55419 C 91.6756 51.9261 59.3188 C 0.0 **** 0.0
55420 C 90.5894 53.0072 59.1569 C 0.0 **** 0.0
55421 C 91.5265 51.1046 60.5731 C 0.0 **** 0.0
55422 C 92.5769 51.1844 61.6211 C 0.0 **** 0.0
55423 C 94.0282 51.601 61.1475 C 0.0 **** 0.0
55424 C 93.9241 52.8298 60.2634 C 0.0 **** 0.0
55425 C 94.8614 51.923 62.4085 C 0.0 **** 0.0
55426 C 94.8984 50.7742 63.4115 C 0.0 **** 0.0
55427 C 93.5119 50.2659 63.785 C 0.0 **** 0.0
55428 C 92.6071 49.9848 62.5577 C 0.0 **** 0.0
55429 C 91.1877 49.6283 62.9772 C 0.0 **** 0.0
55430 C 90.4635 49.0702 61.7267 C 0.0 **** 0.0
55431 C 90.5056 50.0971 60.6275 C 0.0 **** 0.0
55432 O 93.5285 49.1751 64.7217 O 0.0 **** 0.0
55433 C 94.3656 48.1405 64.3132 C 0.0 **** 0.0
55434 C 95.8153 48.5095 63.9401 C 0.0 **** 0.0
55435 C 95.7412 49.612 62.8918 C 0.0 **** 0.0
55436 C 95.3314 53.347 59.9757 C 0.0 **** 0.0
55437 C 96.1715 53.712 61.1829 C 0.0 **** 0.0
55438 C 96.3157 52.427 62.1178 C 0.0 **** 0.0
55439 C 97.5158 54.3712 60.8703 C 0.0 **** 0.0
55440 C 97.9706 54.4135 59.5912 C 0.0 **** 0.0
55441 C 97.1947 53.8377 58.4557 C 0.0 **** 0.0
55442 C 95.8195 53.4354 58.7486 C 0.0 **** 0.0
55443 C 99.2937 55.0013 59.2196 C 0.0 **** 0.0
55444 C 100.375 54.5707 60.2422 C 0.0 **** 0.0
55445 C 99.8607 54.5836 61.7076 C 0.0 **** 0.0
55446 C 98.5105 54.7059 61.9902 C 0.0 **** 0.0
55447 C 98.0363 55.1032 63.4014 C 0.0 **** 0.0
55448 C 99.1612 55.0275 64.477 C 0.0 **** 0.0
55449 C 100.431 54.29 64.0424 C 0.0 **** 0.0
55450 C 100.902 54.8168 62.7499 C 0.0 **** 0.0
55451 C 97.1966 50.0553 62.4773 C 0.0 **** 0.0
55452 C 97.112 51.2944 61.5151 C 0.0 **** 0.0
55453 C 96.521 47.2384 63.3459 C 0.0 **** 0.0
55454 C 97.9059 47.5222 62.8509 C 0.0 **** 0.0
55455 S 98.067 48.7418 61.5663 S 0.0 **** 0.0
55456 C 98.5393 46.2881 62.2657 C 0.0 **** 0.0
55457 C 98.5839 45.1599 63.2171 C 0.0 **** 0.0
55458 C 97.2039 44.8122 63.8143 C 0.0 **** 0.0
55459 C 96.5174 46.0446 64.3641 C 0.0 **** 0.0
55460 C 97.3478 43.7578 64.9098 C 0.0 **** 0.0
55461 C 98.0078 42.5152 64.2677 C 0.0 **** 0.0
55462 C 99.3271 42.8938 63.5549 C 0.0 **** 0.0
55463 C 99.0944 43.9389 62.499 C 0.0 **** 0.0
55464 C 100.036 41.704 62.9477 C 0.0 **** 0.0
55465 C 100.011 40.3991 63.7553 C 0.0 **** 0.0
55466 C 98.6539 40.1331 64.3837 C 0.0 **** 0.0
55467 C 98.1593 41.302 65.2326 C 0.0 **** 0.0
55468 C 95.0524 45.6949 64.653 C 0.0 **** 0.0
55469 C 94.3836 46.9496 65.303 C 0.0 **** 0.0
55470 C 96.0644 43.4495 65.7531 C 0.0 **** 0.0
55471 C 94.8645 44.2624 65.2551 C 0.0 **** 0.0
55472 C 96.8848 41.0243 66.0854 C 0.0 **** 0.0
55473 C 95.7045 41.9821 65.816 C 0.0 **** 0.0
55474 C 98.49 38.6728 64.8874 C 0.0 **** 0.0
55475 C 97.5115 38.5843 66.0544 C 0.0 **** 0.0
55476 C 96.3548 39.5775 65.9161 C 0.0 **** 0.0
55477 O 100.466 39.3705 62.9619 O 0.0 **** 0.0
55478 C 101.867 39.511 62.7454 C 0.0 **** 0.0
55479 C 102.449 40.9577 62.9229 C 0.0 **** 0.0
55480 C 101.482 42.0525 62.5092 C 0.0 **** 0.0
55481 C 103.776 41.135 62.1076 C 0.0 **** 0.0
55482 C 104.593 39.8426 62.1148 C 0.0 **** 0.0
55483 C 103.801 38.6639 61.4404 C 0.0 **** 0.0
55484 C 102.261 38.8293 61.4381 C 0.0 **** 0.0
55485 C 101.541 37.4616 61.1948 C 0.0 **** 0.0
55486 C 102.434 36.4045 60.5342 C 0.0 **** 0.0
55487 C 103.766 36.1753 61.2258 C 0.0 **** 0.0
55488 N 104.211 37.3441 61.9963 N 0.0 **** 0.0
55489 C 93.5439 43.9216 65.9651 C 0.0 **** 0.0
55490 C 93.2575 42.4428 66.1467 C 0.0 **** 0.0
55491 C 94.4508 41.7174 66.6842 C 0.0 **** 0.0
55492 O 92.1212 42.2407 66.9841 O 0.0 **** 0.0
55493 C 91.0356 42.8527 66.389 C 0.0 **** 0.0
55494 C 91.3201 44.3433 66.0723 C 0.0 **** 0.0
55495 O 92.4664 44.4474 65.2558 O 0.0 **** 0.0
55496 C 91.388 45.2074 67.3331 C 0.0 **** 0.0
55497 C 90.0589 45.0329 68.1311 C 0.0 **** 0.0
55498 C 89.0873 43.9515 67.7227 C 0.0 **** 0.0
55499 C 89.7926 42.6719 67.3412 C 0.0 **** 0.0
55500 C 95.216 39.3806 66.9633 C 0.0 **** 0.0
55501 C 94.0416 40.2955 66.7704 C 0.0 **** 0.0
55502 C 97.0943 37.1116 66.1933 C 0.0 **** 0.0
55503 C 96.0207 37.0097 67.2626 C 0.0 **** 0.0
55504 C 94.8315 37.9066 67.0206 C 0.0 **** 0.0
55505 C 98.3129 36.3239 66.6461 C 0.0 **** 0.0
55506 C 99.3455 36.3559 65.4906 C 0.0 **** 0.0
55507 C 99.7357 37.7901 65.0728 C 0.0 **** 0.0
55508 O 95.6472 35.6551 67.4001 O 0.0 **** 0.0
55509 C 96.7383 34.9227 67.9528 C 0.0 **** 0.0
55510 C 97.8988 34.8957 66.9625 C 0.0 **** 0.0
55511 C 100.464 35.2869 65.5306 C 0.0 **** 0.0
55512 C 100.216 33.9924 66.4398 C 0.0 **** 0.0
55513 C 99.0975 34.1323 67.5191 C 0.0 **** 0.0
55514 C 101.444 33.4691 67.1635 C 0.0 **** 0.0
55515 C 102.568 33.3752 66.1009 C 0.0 **** 0.0
55516 C 103.006 34.7727 65.6216 C 0.0 **** 0.0
55517 C 101.87 35.8607 65.6991 C 0.0 **** 0.0
55518 C 98.6717 32.7227 67.9431 C 0.0 **** 0.0
55519 C 97.3907 32.6126 68.7513 C 0.0 **** 0.0
55520 C 96.2971 33.4869 68.2139 C 0.0 **** 0.0
55521 C 101.125 32.1 67.8383 C 0.0 **** 0.0
55522 C 99.8328 31.9823 68.6343 C 0.0 **** 0.0
55523 C 98.6113 54.5776 65.841 C 0.0 **** 0.0
55524 C 97.9782 53.1295 65.8583 C 0.0 **** 0.0
55525 C 99.6158 54.7066 66.9307 C 0.0 **** 0.0
55526 O 101.925 43.2661 63.0666 O 0.0 **** 0.0
55527 C 95.081 33.3963 69.113 C 0.0 **** 0.0
55528 C 95.0633 32.1984 70.0773 C 0.0 **** 0.0
55529 C 95.5861 30.9415 69.3847 C 0.0 **** 0.0
55530 C 97.0257 31.099 68.8266 C 0.0 **** 0.0
55531 C 98.1651 30.3196 69.5101 C 0.0 **** 0.0
55532 C 97.8217 28.8227 69.4031 C 0.0 **** 0.0
55533 C 96.3364 28.4679 69.703 C 0.0 **** 0.0
55534 C 95.4917 29.651 70.21 C 0.0 **** 0.0
55535 C 96.3082 27.4718 70.8512 C 0.0 **** 0.0
55536 C 97.1959 26.288 70.6174 C 0.0 **** 0.0
55537 C 98.5773 26.578 70.0516 C 0.0 **** 0.0
55538 C 98.8962 28.0463 70.193 C 0.0 **** 0.0
55539 C 100.283 28.3116 69.5863 C 0.0 **** 0.0
55540 C 100.608 29.8385 69.5266 C 0.0 **** 0.0
55541 C 99.4981 30.5388 68.7348 C 0.0 **** 0.0
55542 C 101.315 27.5374 70.3888 C 0.0 **** 0.0
55543 C 100.989 26.0642 70.1576 C 0.0 **** 0.0
55544 C 99.6163 25.7587 70.7665 C 0.0 **** 0.0
55545 C 102.24 31.5957 68.7257 C 0.0 **** 0.0
55546 C 102.019 30.0968 68.9417 C 0.0 **** 0.0
55547 C 102.756 27.8781 70.0718 C 0.0 **** 0.0
55548 C 103.08 29.3833 69.819 C 0.0 **** 0.0
55549 C 104.52 29.5489 69.256 C 0.0 **** 0.0
55550 C 105.531 28.4955 69.7054 C 0.0 **** 0.0
55551 C 105.239 27.77 71.0406 C 0.0 **** 0.0
55552 C 103.741 27.4095 71.1618 C 0.0 **** 0.0
55553 O 103.404 26.7634 72.1211 O 0.0 **** 0.0
55554 H 90.2334 58.0985 62.0182 H 0.0 **** 0.0
55555 H 90.7513 56.3343 62.0491 H 0.0 **** 0.0
55556 H 91.5074 58.486 60.167 H 0.0 **** 0.0
55557 H 92.306 56.8666 60.4079 H 0.0 **** 0.0
55558 H 89.9443 57.6319 58.675 H 0.0 **** 0.0
55559 H 89.5124 55.2675 58.1043 H 0.0 **** 0.0
55560 H 89.3133 54.7872 60.9284 H 0.0 **** 0.0
55561 H 88.0012 55.3811 59.8005 H 0.0 **** 0.0
55562 H 91.4869 54.5364 60.3872 H 0.0 **** 0.0
55563 H 93.2224 55.1214 59.1231 H 0.0 **** 0.0
55564 H 91.4724 55.1719 56.6751 H 0.0 **** 0.0
55565 H 93.2265 55.6916 56.6436 H 0.0 **** 0.0
55566 H 91.5256 57.5574 56.8441 H 0.0 **** 0.0
55567 H 92.7216 57.4789 58.0716 H 0.0 **** 0.0
55568 H 93.7083 51.5869 58.5204 H 0.0 **** 0.0
55569 H 91.4925 51.1988 58.4963 H 0.0 **** 0.0
55570 H 89.7576 52.8076 59.7985 H 0.0 **** 0.0
55571 H 90.1807 52.9152 58.1156 H 0.0 **** 0.0
55572 H 93.3637 53.6054 60.7901 H 0.0 **** 0.0
55573 H 91.1462 48.9166 63.8603 H 0.0 **** 0.0
55574 H 90.6843 50.5881 63.3795 H 0.0 **** 0.0
55575 H 89.4127 48.8543 62.0082 H 0.0 **** 0.0
55576 H 90.9249 48.0944 61.4467 H 0.0 **** 0.0
55577 H 89.7778 50.0255 59.8169 H 0.0 **** 0.0
55578 H 95.6422 54.4967 61.7483 H 0.0 **** 0.0
55579 H 97.8062 52.9548 58.1222 H 0.0 **** 0.0
55580 H 97.1034 54.6048 57.6337 H 0.0 **** 0.0
55581 H 95.2574 53.2496 57.8641 H 0.0 **** 0.0
55582 H 99.6355 54.8156 58.2099 H 0.0 **** 0.0
55583 H 99.1124 56.1014 59.2607 H 0.0 **** 0.0
55584 H 101.22 55.2227 60.1526 H 0.0 **** 0.0
55585 H 100.723 53.5399 60.0223 H 0.0 **** 0.0
55586 H 97.5912 56.111 63.2519 H 0.0 **** 0.0
55587 H 97.1099 54.525 63.6587 H 0.0 **** 0.0
55588 H 99.4859 56.058 64.6566 H 0.0 **** 0.0
55589 H 100.166 53.228 64.0019 H 0.0 **** 0.0
55590 H 101.26 54.382 64.7945 H 0.0 **** 0.0
55591 H 101.757 54.1965 62.4213 H 0.0 **** 0.0
55592 H 101.109 55.9021 62.8022 H 0.0 **** 0.0
55593 H 98.1026 51.632 61.1636 H 0.0 **** 0.0
55594 H 98.0785 46.0081 61.2568 H 0.0 **** 0.0
55595 H 99.9637 44.1758 61.871 H 0.0 **** 0.0
55596 H 93.3976 46.6872 65.6533 H 0.0 **** 0.0
55597 H 102.348 38.9023 63.5478 H 0.0 **** 0.0
55598 H 102.72 41.0531 64.0002 H 0.0 **** 0.0
55599 H 101.492 42.1357 61.395 H 0.0 **** 0.0
55600 H 103.619 41.5318 61.0846 H 0.0 **** 0.0
55601 H 104.283 41.9302 62.6356 H 0.0 **** 0.0
55602 H 104.862 39.5472 63.185 H 0.0 **** 0.0
55603 H 105.535 40.006 61.5048 H 0.0 **** 0.0
55604 H 104.162 38.6963 60.3655 H 0.0 **** 0.0
55605 H 101.991 39.5431 60.5985 H 0.0 **** 0.0
55606 H 101.043 37.0542 62.1081 H 0.0 **** 0.0
55607 H 100.681 37.6847 60.5144 H 0.0 **** 0.0
55608 H 102.632 36.6365 59.4576 H 0.0 **** 0.0
55609 H 101.828 35.4808 60.5947 H 0.0 **** 0.0
55610 H 104.542 35.8569 60.4746 H 0.0 **** 0.0
55611 H 103.741 35.3097 61.903 H 0.0 **** 0.0
55612 H 103.874 37.2959 63.0084 H 0.0 **** 0.0
55613 H 90.8349 42.2945 65.4415 H 0.0 **** 0.0
55614 H 90.4383 44.693 65.4564 H 0.0 **** 0.0
55615 H 92.1776 44.8781 68.0122 H 0.0 **** 0.0
55616 H 91.5358 46.2931 67.003 H 0.0 **** 0.0
55617 H 89.4756 45.9797 68.1432 H 0.0 **** 0.0
55618 H 90.3015 44.837 69.1823 H 0.0 **** 0.0
55619 H 88.4978 44.264 66.8633 H 0.0 **** 0.0
55620 H 88.4111 43.7943 68.5779 H 0.0 **** 0.0
55621 H 88.9929 42.0287 66.8533 H 0.0 **** 0.0
55622 H 90.1002 42.1662 68.2618 H 0.0 **** 0.0
55623 H 93.3749 40.2089 67.61 H 0.0 **** 0.0
55624 H 94.1402 37.8223 67.8739 H 0.0 **** 0.0
55625 H 100.449 38.2644 65.8284 H 0.0 **** 0.0
55626 H 100.483 34.9715 64.4563 H 0.0 **** 0.0
55627 H 99.8741 33.2407 65.7131 H 0.0 **** 0.0
55628 H 101.793 34.2098 67.9445 H 0.0 **** 0.0
55629 H 102.271 32.7441 65.2293 H 0.0 **** 0.0
55630 H 103.509 32.8813 66.5401 H 0.0 **** 0.0
55631 H 103.45 34.7008 64.6142 H 0.0 **** 0.0
55632 H 103.793 35.0916 66.2775 H 0.0 **** 0.0
55633 H 102.06 36.6029 64.8966 H 0.0 **** 0.0
55634 H 101.943 36.4066 66.6728 H 0.0 **** 0.0
55635 H 97.7689 55.2257 66.1509 H 0.0 **** 0.0
55636 H 97.9055 52.7695 64.7921 H 0.0 **** 0.0
55637 H 96.9549 53.1138 66.3021 H 0.0 **** 0.0
55638 H 98.5991 52.4251 66.3667 H 0.0 **** 0.0
55639 H 100.133 55.669 66.8844 H 0.0 **** 0.0
55640 H 100.325 53.8448 66.8424 H 0.0 **** 0.0
55641 H 99.1753 54.7046 67.8919 H 0.0 **** 0.0
55642 H 102.221 43.855 62.3172 H 0.0 **** 0.0
55643 H 94.8713 34.3294 69.6813 H 0.0 **** 0.0
55644 H 94.0364 32.0222 70.3373 H 0.0 **** 0.0
55645 H 94.4421 29.3978 70.326 H 0.0 **** 0.0
55646 H 95.2829 27.1494 71.0678 H 0.0 **** 0.0
55647 H 97.192 25.6579 71.5604 H 0.0 **** 0.0
55648 H 101.782 25.299 70.5476 H 0.0 **** 0.0
55649 H 99.2838 24.7002 70.6209 H 0.0 **** 0.0
55650 H 103.274 31.8553 68.3748 H 0.0 **** 0.0
55651 H 104.459 29.5426 68.1577 H 0.0 **** 0.0
55652 H 104.898 30.5761 69.5026 H 0.0 **** 0.0
55653 H 106.51 29.0212 69.746 H 0.0 **** 0.0
55654 H 105.565 27.746 68.9183 H 0.0 **** 0.0
55655 H 105.512 28.4435 71.9035 H 0.0 **** 0.0
55656 H 105.878 26.8776 71.0891 H 0.0 **** 0.0
55657 C 22.2807 96.8743 -9.65647 C 0.0 **** 0.0
55658 C 20.8901 97.3962 -10.0106 C 0.0 **** 0.0
55659 C 20.4017 98.5936 -9.18885 C 0.0 **** 0.0
55660 C 20.8903 98.581 -7.66656 C 0.0 **** 0.0
55661 C 21.655 97.2564 -7.43038 C 0.0 **** 0.0
55662 O 22.7422 97.1578 -8.33624 O 0.0 **** 0.0
55663 C 19.7876 98.7846 -6.59002 C 0.0 **** 0.0
55664 C 18.4219 99.5222 -6.94665 C 0.0 **** 0.0
55665 C 18.2274 99.7898 -8.46717 C 0.0 **** 0.0
55666 C 18.8694 98.7223 -9.31009 C 0.0 **** 0.0
55667 O 18.1782 100.729 -6.27093 O 0.0 **** 0.0
55668 C 18.3305 100.611 -4.85632 C 0.0 **** 0.0
55669 C 19.8067 100.425 -4.53202 C 0.0 **** 0.0
55670 C 20.4087 99.1883 -5.17767 C 0.0 **** 0.0
55671 C 19.9491 100.33 -3.04507 C 0.0 **** 0.0
55672 C 19.2021 99.2978 -2.33252 C 0.0 **** 0.0
55673 C 17.7309 99.4674 -2.6698 C 0.0 **** 0.0
55674 C 17.4549 99.526 -4.16361 C 0.0 **** 0.0
55675 C 16.9376 98.3434 -1.96531 C 0.0 **** 0.0
55676 C 16.95 98.5914 -0.482204 C 0.0 **** 0.0
55677 C 18.3326 98.3224 0.0401088 C 0.0 **** 0.0
55678 C 19.4242 99.1874 -0.755974 C 0.0 **** 0.0
55679 C 19.6325 100.605 -0.159627 C 0.0 **** 0.0
55680 C 20.7706 101.291 -0.89197 C 0.0 **** 0.0
55681 C 20.4842 101.414 -2.36309 C 0.0 **** 0.0
55682 O 18.3622 98.6245 1.45153 O 0.0 **** 0.0
55683 C 17.6368 97.6147 2.13091 C 0.0 **** 0.0
55684 C 16.1645 97.6653 1.81292 C 0.0 **** 0.0
55685 C 15.8486 97.7936 0.282819 C 0.0 **** 0.0
55686 C 15.9497 99.7055 -4.34028 C 0.0 **** 0.0
55687 C 15.1192 98.4981 -3.92428 C 0.0 **** 0.0
55688 C 15.4666 98.2303 -2.43816 C 0.0 **** 0.0
55689 C 13.6191 98.7513 -3.94134 C 0.0 **** 0.0
55690 C 13.1071 100.027 -3.95396 C 0.0 **** 0.0
55691 C 13.9843 101.242 -4.26715 C 0.0 **** 0.0
55692 C 15.3765 100.88 -4.69615 C 0.0 **** 0.0
55693 C 11.6603 100.266 -3.81951 C 0.0 **** 0.0
55694 C 10.9599 99.122 -3.15513 C 0.0 **** 0.0
55695 C 11.3557 97.819 -3.76892 C 0.0 **** 0.0
55696 C 12.6481 97.6184 -4.08096 C 0.0 **** 0.0
55697 C 13.0616 96.4748 -4.97401 C 0.0 **** 0.0
55698 C 11.9367 95.5261 -5.37478 C 0.0 **** 0.0
55699 C 10.9319 95.4366 -4.23331 C 0.0 **** 0.0
55700 C 10.3032 96.79 -3.9821 C 0.0 **** 0.0
55701 C 15.4946 96.5249 -0.490717 C 0.0 **** 0.0
55702 C 14.9272 96.8888 -1.91438 C 0.0 **** 0.0
55703 C 15.5354 96.4677 2.49183 C 0.0 **** 0.0
55704 C 14.1692 96.1659 1.94882 C 0.0 **** 0.0
55705 S 14.3478 95.3483 0.302445 S 0.0 **** 0.0
55706 C 13.4052 95.1769 2.89404 C 0.0 **** 0.0
55707 C 13.3222 95.7541 4.2795 C 0.0 **** 0.0
55708 C 14.7077 95.8443 4.86994 C 0.0 **** 0.0
55709 C 15.5868 96.7831 4.00557 C 0.0 **** 0.0
55710 C 14.6283 96.5291 6.22189 C 0.0 **** 0.0
55711 C 13.5567 95.9482 7.18091 C 0.0 **** 0.0
55712 C 12.1575 95.7413 6.52543 C 0.0 **** 0.0
55713 C 12.3008 94.973 5.16577 C 0.0 **** 0.0
55714 C 11.1446 95.0823 7.53804 C 0.0 **** 0.0
55715 C 11.0694 95.931 8.83059 C 0.0 **** 0.0
55716 C 12.4356 96.3704 9.4664 C 0.0 **** 0.0
55717 C 13.418 96.9394 8.37613 C 0.0 **** 0.0
55718 C 17.0766 96.7517 4.47764 C 0.0 **** 0.0
55719 C 17.9182 97.6845 3.62357 C 0.0 **** 0.0
55720 C 16.0343 96.5584 6.87328 C 0.0 **** 0.0
55721 C 17.1538 97.1663 5.97001 C 0.0 **** 0.0
55722 C 14.8435 97.0974 9.03106 C 0.0 **** 0.0
55723 C 15.9686 97.5481 8.0512 C 0.0 **** 0.0
55724 C 12.3664 97.3216 10.6296 C 0.0 **** 0.0
55725 C 13.7206 97.4778 11.267 C 0.0 **** 0.0
55726 C 14.7491 98.0071 10.2424 C 0.0 **** 0.0
55727 O 10.1612 97.0002 8.6252 O 0.0 **** 0.0
55728 C 8.85825 96.5291 8.8413 C 0.0 **** 0.0
55729 C 8.60202 95.2487 8.0047 C 0.0 **** 0.0
55730 C 9.7261 94.9514 6.97196 C 0.0 **** 0.0
55731 C 7.20747 95.2292 7.36904 C 0.0 **** 0.0
55732 C 6.1597 95.6987 8.39057 C 0.0 **** 0.0
55733 C 6.32616 97.1837 8.85421 C 0.0 **** 0.0
55734 C 7.81274 97.6815 8.71637 C 0.0 **** 0.0
55735 C 8.1522 98.8804 9.61425 C 0.0 **** 0.0
55736 C 6.88218 99.701 9.95326 C 0.0 **** 0.0
55737 C 5.87114 98.767 10.6804 C 0.0 **** 0.0
55738 N 5.79668 97.358 10.224 N 0.0 **** 0.0
55739 C 18.5669 96.9603 6.65297 C 0.0 **** 0.0
55740 C 18.5698 97.6095 8.0193 C 0.0 **** 0.0
55741 C 17.2706 97.5624 8.83289 C 0.0 **** 0.0
55742 O 19.1147 98.8925 7.93488 O 0.0 **** 0.0
55743 C 20.507 98.7667 7.77757 C 0.0 **** 0.0
55744 C 20.8295 97.9108 6.5223 C 0.0 **** 0.0
55745 O 19.665 97.4744 5.83074 O 0.0 **** 0.0
55746 C 21.7832 96.7511 6.82622 C 0.0 **** 0.0
55747 C 23.0164 97.1042 7.68585 C 0.0 **** 0.0
55748 C 22.7376 98.1329 8.80612 C 0.0 **** 0.0
55749 C 21.264 98.3181 9.07013 C 0.0 **** 0.0
55750 C 16.1723 98.1543 10.9089 C 0.0 **** 0.0
55751 C 17.2627 98.5972 9.87817 C 0.0 **** 0.0
55752 C 13.7003 98.4318 12.4655 C 0.0 **** 0.0
55753 C 15.0991 98.6149 13.1164 C 0.0 **** 0.0
55754 C 16.1227 99.1419 12.0665 C 0.0 **** 0.0
55755 C 12.7609 97.84 13.4996 C 0.0 **** 0.0
55756 C 11.2854 97.7093 12.9913 C 0.0 **** 0.0
55757 C 11.2581 96.9361 11.6591 C 0.0 **** 0.0
55758 O 14.9419 99.6003 14.0648 O 0.0 **** 0.0
55759 C 14.2874 98.9789 15.1172 C 0.0 **** 0.0
55760 C 12.8123 98.7149 14.7235 C 0.0 **** 0.0
55761 C 10.2852 97.2461 14.1275 C 0.0 **** 0.0
55762 C 10.5699 97.835 15.5195 C 0.0 **** 0.0
55763 C 12.0823 97.9853 15.853 C 0.0 **** 0.0
55764 C 9.96312 96.9654 16.6489 C 0.0 **** 0.0
55765 C 8.61473 96.278 16.2508 C 0.0 **** 0.0
55766 C 8.82346 95.3735 15.0021 C 0.0 **** 0.0
55767 C 10.1225 95.7124 14.2398 C 0.0 **** 0.0
55768 C 12.2378 98.7617 17.175 C 0.0 **** 0.0
55769 C 13.65 99.1736 17.5593 C 0.0 **** 0.0
55770 C 14.3077 99.8978 16.3619 C 0.0 **** 0.0
55771 C 9.98144 97.8124 18.0093 C 0.0 **** 0.0
55772 C 11.4709 98.1706 18.3714 C 0.0 **** 0.0
55773 C 12.5137 94.1496 -5.806 C 0.0 **** 0.0
55774 C 13.0119 93.1915 -4.71088 C 0.0 **** 0.0
55775 C 11.5487 93.4367 -6.78162 C 0.0 **** 0.0
55776 O 9.54209 93.6308 6.4948 O 0.0 **** 0.0
55777 C 15.6991 100.368 16.7239 C 0.0 **** 0.0
55778 C 15.5969 101.311 17.9243 C 0.0 **** 0.0
55779 C 15.0034 100.581 19.1214 C 0.0 **** 0.0
55780 C 13.6071 100.137 18.7428 C 0.0 **** 0.0
55781 C 12.9323 99.4512 19.959 C 0.0 **** 0.0
55782 C 12.9176 100.326 21.2056 C 0.0 **** 0.0
55783 C 14.3831 100.78 21.4831 C 0.0 **** 0.0
55784 C 15.0079 101.572 20.32 C 0.0 **** 0.0
55785 C 14.5778 101.419 22.8621 C 0.0 **** 0.0
55786 C 14.0848 100.413 23.8946 C 0.0 **** 0.0
55787 C 12.5899 100.145 23.7209 C 0.0 **** 0.0
55788 C 12.3604 99.4863 22.3425 C 0.0 **** 0.0
55789 C 10.8844 99.1261 22.1166 C 0.0 **** 0.0
55790 C 10.8094 98.3119 20.88 C 0.0 **** 0.0
55791 C 11.4635 99.0575 19.6584 C 0.0 **** 0.0
55792 C 10.3652 98.2384 23.3077 C 0.0 **** 0.0
55793 C 10.5322 99.0 24.6441 C 0.0 **** 0.0
55794 C 12.054 99.2865 24.8721 C 0.0 **** 0.0
55795 C 9.30626 97.109 19.177 C 0.0 **** 0.0
55796 C 9.34919 97.8771 20.5561 C 0.0 **** 0.0
55797 C 8.89583 97.7621 23.1158 C 0.0 **** 0.0
55798 C 8.7361 97.0825 21.7316 C 0.0 **** 0.0
55799 C 7.22294 96.7481 21.4845 C 0.0 **** 0.0
55800 C 6.33758 96.5778 22.7583 C 0.0 **** 0.0
55801 C 7.17023 95.9537 23.8798 C 0.0 **** 0.0
55802 C 8.41643 96.7225 24.1263 C 0.0 **** 0.0
55803 O 9.09022 96.46 25.1308 O 0.0 **** 0.0
55804 H 22.9838 97.2898 -10.407 H 0.0 **** 0.0
55805 H 22.3293 95.7823 -9.88082 H 0.0 **** 0.0
55806 H 20.9337 97.7479 -11.0762 H 0.0 **** 0.0
55807 H 20.1004 96.5926 -9.99488 H 0.0 **** 0.0
55808 H 20.8784 99.4402 -9.67299 H 0.0 **** 0.0
55809 H 21.6396 99.426 -7.59469 H 0.0 **** 0.0
55810 H 21.0088 96.3625 -7.55532 H 0.0 **** 0.0
55811 H 22.1133 97.1941 -6.4104 H 0.0 **** 0.0
55812 H 19.418 97.7408 -6.36472 H 0.0 **** 0.0
55813 H 17.5763 98.8639 -6.71639 H 0.0 **** 0.0
55814 H 18.7324 100.762 -8.69439 H 0.0 **** 0.0
55815 H 17.1775 99.816 -8.63697 H 0.0 **** 0.0
55816 H 18.6017 98.8937 -10.3848 H 0.0 **** 0.0
55817 H 18.3574 97.7742 -9.08352 H 0.0 **** 0.0
55818 H 18.0751 101.605 -4.37216 H 0.0 **** 0.0
55819 H 20.3825 101.263 -4.95026 H 0.0 **** 0.0
55820 H 20.3459 98.3355 -4.48222 H 0.0 **** 0.0
55821 H 21.5054 99.3285 -5.24495 H 0.0 **** 0.0
55822 H 17.7363 98.5184 -4.58317 H 0.0 **** 0.0
55823 H 18.6682 101.203 -0.162541 H 0.0 **** 0.0
55824 H 19.9073 100.556 0.921364 H 0.0 **** 0.0
55825 H 21.7061 100.698 -0.758312 H 0.0 **** 0.0
55826 H 21.0103 102.277 -0.479245 H 0.0 **** 0.0
55827 H 20.8472 102.265 -2.89849 H 0.0 **** 0.0
55828 H 15.3698 97.6428 -4.59185 H 0.0 **** 0.0
55829 H 14.0581 101.869 -3.36973 H 0.0 **** 0.0
55830 H 13.5564 101.887 -5.10214 H 0.0 **** 0.0
55831 H 15.911 101.77 -4.91565 H 0.0 **** 0.0
55832 H 11.4297 101.222 -3.19708 H 0.0 **** 0.0
55833 H 11.2869 100.388 -4.81155 H 0.0 **** 0.0
55834 H 9.8696 99.2665 -3.18718 H 0.0 **** 0.0
55835 H 11.2996 99.0028 -2.07202 H 0.0 **** 0.0
55836 H 13.519 96.9157 -5.86485 H 0.0 **** 0.0
55837 H 13.8257 95.9102 -4.42559 H 0.0 **** 0.0
55838 H 11.4336 95.9845 -6.28194 H 0.0 **** 0.0
55839 H 11.3584 94.9924 -3.29275 H 0.0 **** 0.0
55840 H 10.0728 94.7798 -4.54138 H 0.0 **** 0.0
55841 H 9.60703 96.7444 -3.08039 H 0.0 **** 0.0
55842 H 9.6733 97.1381 -4.88537 H 0.0 **** 0.0
55843 H 15.0245 96.0548 -2.60588 H 0.0 **** 0.0
55844 H 12.442 94.9655 2.45721 H 0.0 **** 0.0
55845 H 11.3153 94.946 4.65059 H 0.0 **** 0.0
55846 H 18.9845 97.4287 3.6704 H 0.0 **** 0.0
55847 H 8.75156 96.2605 9.87868 H 0.0 **** 0.0
55848 H 8.62975 94.3963 8.72076 H 0.0 **** 0.0
55849 H 9.55765 95.704 6.17034 H 0.0 **** 0.0
55850 H 7.21776 95.903 6.46014 H 0.0 **** 0.0
55851 H 6.93327 94.2457 6.99388 H 0.0 **** 0.0
55852 H 6.12415 94.9854 9.28465 H 0.0 **** 0.0
55853 H 5.15228 95.6264 7.85771 H 0.0 **** 0.0
55854 H 5.73943 97.8201 8.1394 H 0.0 **** 0.0
55855 H 7.9697 98.0594 7.66973 H 0.0 **** 0.0
55856 H 8.64697 98.6309 10.5797 H 0.0 **** 0.0
55857 H 8.83409 99.5466 9.07144 H 0.0 **** 0.0
55858 H 6.46354 100.066 8.98968 H 0.0 **** 0.0
55859 H 7.14801 100.514 10.6639 H 0.0 **** 0.0
55860 H 4.89691 99.2504 10.5806 H 0.0 **** 0.0
55861 H 6.18102 98.7872 11.7705 H 0.0 **** 0.0
55862 H 6.37145 96.7886 10.8982 H 0.0 **** 0.0
55863 H 20.877 99.7748 7.54908 H 0.0 **** 0.0
55864 H 21.4154 98.5156 5.79978 H 0.0 **** 0.0
55865 H 21.2617 95.8569 7.28165 H 0.0 **** 0.0
55866 H 22.1493 96.3088 5.89429 H 0.0 **** 0.0
55867 H 23.831 97.5146 7.03792 H 0.0 **** 0.0
55868 H 23.2841 96.1517 8.14842 H 0.0 **** 0.0
55869 H 23.1018 99.1007 8.45587 H 0.0 **** 0.0
55870 H 23.2548 97.8316 9.75377 H 0.0 **** 0.0
55871 H 21.1951 99.143 9.80135 H 0.0 **** 0.0
55872 H 20.8157 97.3637 9.49331 H 0.0 **** 0.0
55873 H 18.2604 98.7035 10.3453 H 0.0 **** 0.0
55874 H 15.9401 100.166 11.7461 H 0.0 **** 0.0
55875 H 10.2994 97.132 11.1969 H 0.0 **** 0.0
55876 H 9.2966 97.6646 13.8128 H 0.0 **** 0.0
55877 H 10.1274 98.8274 15.4748 H 0.0 **** 0.0
55878 H 10.6484 96.1045 16.8477 H 0.0 **** 0.0
55879 H 7.91918 97.0631 16.0989 H 0.0 **** 0.0
55880 H 8.1684 95.6311 17.0476 H 0.0 **** 0.0
55881 H 7.93832 95.4701 14.3399 H 0.0 **** 0.0
55882 H 8.82027 94.3091 15.3706 H 0.0 **** 0.0
55883 H 10.0655 95.2908 13.2467 H 0.0 **** 0.0
55884 H 11.0121 95.1983 14.6509 H 0.0 **** 0.0
55885 H 13.4139 94.3542 -6.44369 H 0.0 **** 0.0
55886 H 13.6126 92.4048 -5.23088 H 0.0 **** 0.0
55887 H 12.1516 92.7312 -4.22614 H 0.0 **** 0.0
55888 H 13.6388 93.651 -3.89766 H 0.0 **** 0.0
55889 H 11.3599 94.0713 -7.6462 H 0.0 **** 0.0
55890 H 10.6041 93.0967 -6.28961 H 0.0 **** 0.0
55891 H 12.049 92.5172 -7.16576 H 0.0 **** 0.0
55892 H 8.84357 93.7239 5.76786 H 0.0 **** 0.0
55893 H 16.0902 100.881 15.8436 H 0.0 **** 0.0
55894 H 16.6175 101.686 18.1573 H 0.0 **** 0.0
55895 H 16.0724 101.821 20.6126 H 0.0 **** 0.0
55896 H 15.6571 101.537 23.0158 H 0.0 **** 0.0
55897 H 14.2623 100.856 24.9373 H 0.0 **** 0.0
55898 H 10.1758 98.4332 25.5349 H 0.0 **** 0.0
55899 H 12.1403 99.8484 25.849 H 0.0 **** 0.0
55900 H 9.8331 96.2009 19.3557 H 0.0 **** 0.0
55901 H 6.80179 97.5258 20.8552 H 0.0 **** 0.0
55902 H 7.23693 95.7788 20.9713 H 0.0 **** 0.0
55903 H 5.46179 95.9511 22.525 H 0.0 **** 0.0
55904 H 5.93177 97.5384 23.0734 H 0.0 **** 0.0
55905 H 7.36496 94.9146 23.6383 H 0.0 **** 0.0
55906 H 6.547 95.9499 24.8022 H 0.0 **** 0.0
55907 C 2.38759 49.6076 84.9781 C 0.0 **** 0.0
55908 C 1.45041 50.2966 85.968 C 0.0 **** 0.0
55909 C 0.243994 49.441 86.2465 C 0.0 **** 0.0
55910 C -0.217835 48.7379 84.9565 C 0.0 **** 0.0
55911 C 0.948994 47.7694 84.4803 C 0.0 **** 0.0
55912 O 2.21667 48.1882 84.9981 O 0.0 **** 0.0
55913 C -0.626228 49.762 83.8483 C 0.0 **** 0.0
55914 C -1.57944 50.8842 84.4286 C 0.0 **** 0.0
55915 C -2.06075 50.5172 85.8127 C 0.0 **** 0.0
55916 C -0.939311 50.2542 86.7981 C 0.0 **** 0.0
55917 O -2.692 51.0968 83.6166 O 0.0 **** 0.0
55918 C -2.3282 51.2812 82.2536 C 0.0 **** 0.0
55919 C -1.937 49.9198 81.6536 C 0.0 **** 0.0
55920 C -1.32126 48.9917 82.694 C 0.0 **** 0.0
55921 C -1.25626 49.9642 80.294 C 0.0 **** 0.0
55922 C -0.424429 51.1102 79.9446 C 0.0 **** 0.0
55923 C -0.984065 52.4358 80.4416 C 0.0 **** 0.0
55924 C -1.26174 52.3679 81.9557 C 0.0 **** 0.0
55925 C 0.0969298 53.492 80.2399 C 0.0 **** 0.0
55926 C 0.371897 53.5981 78.7371 C 0.0 **** 0.0
55927 C 0.709419 52.2822 78.0109 C 0.0 **** 0.0
55928 C -0.158372 51.1177 78.43 C 0.0 **** 0.0
55929 C 0.432223 49.7969 77.9314 C 0.0 **** 0.0
55930 C -0.54673 48.6307 78.2112 C 0.0 **** 0.0
55931 C -1.20881 48.7828 79.5626 C 0.0 **** 0.0
55932 O 0.68471 52.5007 76.607 O 0.0 **** 0.0
55933 C 1.7638 53.354 76.281 C 0.0 **** 0.0
55934 C 1.71878 54.7101 76.9457 C 0.0 **** 0.0
55935 C 1.58938 54.5301 78.459 C 0.0 **** 0.0
55936 C -1.59705 53.7634 82.5035 C 0.0 **** 0.0
55937 C -0.465471 54.7955 82.3646 C 0.0 **** 0.0
55938 C -0.15482 54.9093 80.8533 C 0.0 **** 0.0
55939 C -0.769169 56.1575 83.0497 C 0.0 **** 0.0
55940 C -2.04393 56.5528 83.2225 C 0.0 **** 0.0
55941 C -3.17122 55.615 82.9995 C 0.0 **** 0.0
55942 C -2.81678 54.1585 82.8562 C 0.0 **** 0.0
55943 C -2.36205 57.9409 83.7084 C 0.0 **** 0.0
55944 C -1.26281 58.953 83.3929 C 0.0 **** 0.0
55945 C 0.13467 58.3944 83.5345 C 0.0 **** 0.0
55946 C 0.325784 57.0461 83.5512 C 0.0 **** 0.0
55947 C 1.66911 56.4466 83.8391 C 0.0 **** 0.0
55948 C 2.71781 57.5083 84.2745 C 0.0 **** 0.0
55949 C 2.63645 58.7449 83.297 C 0.0 **** 0.0
55950 C 1.30696 59.4155 83.5736 C 0.0 **** 0.0
55951 C 1.42005 55.9234 79.0944 C 0.0 **** 0.0
55952 C 0.999378 55.8841 80.5561 C 0.0 **** 0.0
55953 C 2.95849 55.5421 76.5337 C 0.0 **** 0.0
55954 C 3.17341 56.8642 77.2819 C 0.0 **** 0.0
55955 S 3.08362 56.6624 79.1177 S 0.0 **** 0.0
55956 C 4.56434 57.3362 76.8452 C 0.0 **** 0.0
55957 C 4.59529 57.6425 75.366 C 0.0 **** 0.0
55958 C 4.28139 56.4059 74.5768 C 0.0 **** 0.0
55959 C 2.9794 55.7439 75.0284 C 0.0 **** 0.0
55960 C 4.29286 56.7194 73.0369 C 0.0 **** 0.0
55961 C 5.64603 57.3199 72.6215 C 0.0 **** 0.0
55962 C 5.99929 58.555 73.4636 C 0.0 **** 0.0
55963 C 5.9306 58.1997 74.9557 C 0.0 **** 0.0
55964 C 7.359 59.1119 73.1174 C 0.0 **** 0.0
55965 C 7.71437 59.1725 71.6131 C 0.0 **** 0.0
55966 C 7.02991 58.1084 70.6991 C 0.0 **** 0.0
55967 C 5.61798 57.7811 71.1481 C 0.0 **** 0.0
55968 C 2.82243 54.4597 74.2226 C 0.0 **** 0.0
55969 C 1.76484 53.4613 74.7608 C 0.0 **** 0.0
55970 C 3.82379 55.5595 72.1811 C 0.0 **** 0.0
55971 C 2.54266 54.9086 72.7399 C 0.0 **** 0.0
55972 C 5.06245 56.7009 70.2263 C 0.0 **** 0.0
55973 C 3.71155 56.0879 70.7323 C 0.0 **** 0.0
55974 C 7.00339 58.5778 69.1673 C 0.0 **** 0.0
55975 C 6.32039 57.5134 68.2385 C 0.0 **** 0.0
55976 C 4.91568 57.1563 68.7478 C 0.0 **** 0.0
55977 O 7.62073 60.4724 71.1058 O 0.0 **** 0.0
55978 C 8.77072 61.1706 71.561 C 0.0 **** 0.0
55979 C 8.76383 61.2893 73.1294 C 0.0 **** 0.0
55980 C 7.63136 60.4704 73.7862 C 0.0 **** 0.0
55981 C 8.83045 62.7305 73.6223 C 0.0 **** 0.0
55982 C 10.0219 63.4559 72.9778 C 0.0 **** 0.0
55983 C 9.92743 63.5089 71.4381 C 0.0 **** 0.0
55984 C 8.82793 62.5699 70.8146 C 0.0 **** 0.0
55985 C 9.09522 62.4707 69.3297 C 0.0 **** 0.0
55986 C 9.91574 63.6659 68.7705 C 0.0 **** 0.0
55987 C 11.3148 63.7026 69.4362 C 0.0 **** 0.0
55988 N 11.2638 63.3095 70.8679 N 0.0 **** 0.0
55989 C 2.00314 53.8491 71.7955 C 0.0 **** 0.0
55990 C 1.8347 54.3982 70.3481 C 0.0 **** 0.0
55991 C 3.1734 54.983 69.8501 C 0.0 **** 0.0
55992 O 1.45577 53.2888 69.5492 O 0.0 **** 0.0
55993 C 0.176738 52.8708 69.9398 C 0.0 **** 0.0
55994 C 0.221522 52.3627 71.4238 C 0.0 **** 0.0
55995 O 0.781598 53.3513 72.2911 O 0.0 **** 0.0
55996 C 0.961021 51.0284 71.5545 C 0.0 **** 0.0
55997 C 0.532362 49.9662 70.5253 C 0.0 **** 0.0
55998 C -0.647719 50.424 69.6478 C 0.0 **** 0.0
55999 C -0.334134 51.7481 68.9819 C 0.0 **** 0.0
56000 C 4.50186 56.0045 67.8868 C 0.0 **** 0.0
56001 C 3.11344 55.4687 68.3938 C 0.0 **** 0.0
56002 C 6.2528 58.0686 66.7819 C 0.0 **** 0.0
56003 C 5.72502 57.0246 65.863 C 0.0 **** 0.0
56004 C 4.39546 56.4211 66.401 C 0.0 **** 0.0
56005 C 7.62285 58.461 66.2325 C 0.0 **** 0.0
56006 C 8.34063 59.4396 67.1773 C 0.0 **** 0.0
56007 C 8.36163 58.8545 68.6063 C 0.0 **** 0.0
56008 O 5.52536 57.6439 64.577 O 0.0 **** 0.0
56009 C 6.83526 57.8615 63.9987 C 0.0 **** 0.0
56010 C 7.529 58.968 64.799 C 0.0 **** 0.0
56011 C 9.78322 59.8544 66.6745 C 0.0 **** 0.0
56012 C 9.88213 59.9529 65.1011 C 0.0 **** 0.0
56013 C 8.9159 59.0633 64.2685 C 0.0 **** 0.0
56014 C 11.3255 59.6414 64.5637 C 0.0 **** 0.0
56015 C 12.4303 60.1422 65.5445 C 0.0 **** 0.0
56016 C 12.3344 59.4975 66.9219 C 0.0 **** 0.0
56017 C 10.9336 58.9037 67.2384 C 0.0 **** 0.0
56018 C 8.93984 59.5232 62.7849 C 0.0 **** 0.0
56019 C 8.08871 58.5975 61.9369 C 0.0 **** 0.0
56020 C 6.67511 58.3204 62.5088 C 0.0 **** 0.0
56021 C 11.4334 60.2424 63.0901 C 0.0 **** 0.0
56022 C 10.416 59.5035 62.2413 C 0.0 **** 0.0
56023 C 4.09562 56.8946 84.3536 C 0.0 **** 0.0
56024 C 4.71229 56.4801 83.0014 C 0.0 **** 0.0
56025 C 5.05823 57.8932 85.0549 C 0.0 **** 0.0
56026 O 7.93327 60.2304 75.1285 O 0.0 **** 0.0
56027 C 5.89083 57.3362 61.6053 C 0.0 **** 0.0
56028 C 5.87602 57.745 60.1273 C 0.0 **** 0.0
56029 C 7.31404 57.9476 59.612 C 0.0 **** 0.0
56030 C 8.02541 59.0123 60.4484 C 0.0 **** 0.0
56031 C 9.46022 59.2229 59.9184 C 0.0 **** 0.0
56032 C 9.43131 59.7779 58.4951 C 0.0 **** 0.0
56033 C 8.68868 58.7925 57.5765 C 0.0 **** 0.0
56034 C 7.30699 58.3425 58.1097 C 0.0 **** 0.0
56035 C 8.57343 59.467 56.1922 C 0.0 **** 0.0
56036 C 9.9071 59.8808 55.5803 C 0.0 **** 0.0
56037 C 10.7481 60.7035 56.4962 C 0.0 **** 0.0
56038 C 10.8302 59.9972 57.892 C 0.0 **** 0.0
56039 C 11.8069 60.7091 58.7969 C 0.0 **** 0.0
56040 C 11.8419 60.0397 60.1874 C 0.0 **** 0.0
56041 C 10.4281 60.1067 60.8252 C 0.0 **** 0.0
56042 C 13.2041 60.8063 58.1151 C 0.0 **** 0.0
56043 C 13.0056 61.7733 56.9136 C 0.0 **** 0.0
56044 C 12.0803 61.125 55.8754 C 0.0 **** 0.0
56045 C 12.8294 60.222 62.4841 C 0.0 **** 0.0
56046 C 12.8581 60.8073 61.0636 C 0.0 **** 0.0
56047 C 14.3348 61.3058 59.031 C 0.0 **** 0.0
56048 C 14.2598 60.6145 60.3974 C 0.0 **** 0.0
56049 C 15.4294 60.9813 61.3157 C 0.0 **** 0.0
56050 C 16.7009 61.5732 60.6962 C 0.0 **** 0.0
56051 C 16.9656 61.0257 59.301 C 0.0 **** 0.0
56052 C 15.7161 61.1231 58.4439 C 0.0 **** 0.0
56053 O 15.8706 61.1938 57.1983 O 0.0 **** 0.0
56054 H 3.44494 49.8909 85.1981 H 0.0 **** 0.0
56055 H 2.22143 50.006 83.9821 H 0.0 **** 0.0
56056 H 1.96328 50.5076 86.9497 H 0.0 **** 0.0
56057 H 1.16307 51.3047 85.5431 H 0.0 **** 0.0
56058 H 0.529469 48.6874 86.9718 H 0.0 **** 0.0
56059 H -1.03373 48.0177 85.183 H 0.0 **** 0.0
56060 H 0.972877 47.4876 83.3921 H 0.0 **** 0.0
56061 H 0.777505 46.7841 84.9727 H 0.0 **** 0.0
56062 H 0.268525 50.227 83.3957 H 0.0 **** 0.0
56063 H -1.04607 51.8455 84.5277 H 0.0 **** 0.0
56064 H -2.68672 49.6663 85.7229 H 0.0 **** 0.0
56065 H -2.75896 51.3197 86.2184 H 0.0 **** 0.0
56066 H -1.41895 49.6683 87.6395 H 0.0 **** 0.0
56067 H -0.513899 51.1809 87.2444 H 0.0 **** 0.0
56068 H -3.24945 51.514 81.7101 H 0.0 **** 0.0
56069 H -2.87677 49.4336 81.3881 H 0.0 **** 0.0
56070 H -0.606199 48.2712 82.192 H 0.0 **** 0.0
56071 H -2.11111 48.3443 83.105 H 0.0 **** 0.0
56072 H -0.276376 52.0366 82.3756 H 0.0 **** 0.0
56073 H 0.728394 49.8302 76.8622 H 0.0 **** 0.0
56074 H 1.42143 49.6166 78.446 H 0.0 **** 0.0
56075 H 0.00456001 47.659 78.1647 H 0.0 **** 0.0
56076 H -1.39116 48.624 77.4725 H 0.0 **** 0.0
56077 H -1.67735 47.8171 79.9138 H 0.0 **** 0.0
56078 H 0.3606 54.3407 82.9064 H 0.0 **** 0.0
56079 H -3.7109 55.8808 82.0037 H 0.0 **** 0.0
56080 H -3.9297 55.7896 83.827 H 0.0 **** 0.0
56081 H -3.61631 53.4123 82.9447 H 0.0 **** 0.0
56082 H -3.34784 58.2999 83.2723 H 0.0 **** 0.0
56083 H -2.43847 57.8338 84.8497 H 0.0 **** 0.0
56084 H -1.40293 59.8528 84.0508 H 0.0 **** 0.0
56085 H -1.41363 59.3667 82.3366 H 0.0 **** 0.0
56086 H 1.56984 55.7301 84.6888 H 0.0 **** 0.0
56087 H 1.98904 55.9382 82.8757 H 0.0 **** 0.0
56088 H 2.43817 57.8266 85.2948 H 0.0 **** 0.0
56089 H 2.63812 58.3559 82.2496 H 0.0 **** 0.0
56090 H 3.40872 59.5074 83.4439 H 0.0 **** 0.0
56091 H 1.07579 60.2207 82.8734 H 0.0 **** 0.0
56092 H 1.409 59.8898 84.5654 H 0.0 **** 0.0
56093 H 0.718381 56.8843 80.8435 H 0.0 **** 0.0
56094 H 4.9072 58.1604 77.493 H 0.0 **** 0.0
56095 H 6.82227 57.5535 75.2589 H 0.0 **** 0.0
56096 H 2.07819 52.4595 74.3748 H 0.0 **** 0.0
56097 H 9.71924 60.5977 71.297 H 0.0 **** 0.0
56098 H 9.78581 60.8985 73.4759 H 0.0 **** 0.0
56099 H 6.66975 61.057 73.7518 H 0.0 **** 0.0
56100 H 7.90204 63.2238 73.3817 H 0.0 **** 0.0
56101 H 8.97288 62.8062 74.6959 H 0.0 **** 0.0
56102 H 11.0117 63.0192 73.2119 H 0.0 **** 0.0
56103 H 10.034 64.4475 73.406 H 0.0 **** 0.0
56104 H 9.63541 64.5663 71.1671 H 0.0 **** 0.0
56105 H 7.83407 63.0397 70.8013 H 0.0 **** 0.0
56106 H 9.68345 61.608 69.1048 H 0.0 **** 0.0
56107 H 8.13919 62.3464 68.7867 H 0.0 **** 0.0
56108 H 9.36878 64.5729 68.9402 H 0.0 **** 0.0
56109 H 10.0284 63.6812 67.6681 H 0.0 **** 0.0
56110 H 11.7381 64.7132 69.3366 H 0.0 **** 0.0
56111 H 12.0065 62.9829 68.9433 H 0.0 **** 0.0
56112 H 11.5828 62.2902 71.0288 H 0.0 **** 0.0
56113 H -0.548989 53.7602 69.8942 H 0.0 **** 0.0
56114 H -0.820212 52.1341 71.7316 H 0.0 **** 0.0
56115 H 2.05768 51.153 71.5917 H 0.0 **** 0.0
56116 H 0.677354 50.756 72.5972 H 0.0 **** 0.0
56117 H 0.21231 49.0165 71.063 H 0.0 **** 0.0
56118 H 1.35886 49.6376 69.8118 H 0.0 **** 0.0
56119 H -1.55194 50.6014 70.244 H 0.0 **** 0.0
56120 H -0.814281 49.6672 68.8435 H 0.0 **** 0.0
56121 H -1.2233 52.1207 68.4688 H 0.0 **** 0.0
56122 H 0.437623 51.5743 68.2145 H 0.0 **** 0.0
56123 H 2.80948 54.651 67.7376 H 0.0 **** 0.0
56124 H 4.09259 55.5791 65.7495 H 0.0 **** 0.0
56125 H 8.82877 59.5231 69.257 H 0.0 **** 0.0
56126 H 9.97451 60.8292 67.1286 H 0.0 **** 0.0
56127 H 9.61941 60.9808 64.835 H 0.0 **** 0.0
56128 H 11.5793 58.5413 64.4817 H 0.0 **** 0.0
56129 H 12.3911 61.2356 65.6752 H 0.0 **** 0.0
56130 H 13.4424 59.8965 65.168 H 0.0 **** 0.0
56131 H 12.5401 60.2519 67.6695 H 0.0 **** 0.0
56132 H 13.0444 58.6454 67.048 H 0.0 **** 0.0
56133 H 10.9187 58.7437 68.3509 H 0.0 **** 0.0
56134 H 10.8426 57.847 66.7887 H 0.0 **** 0.0
56135 H 4.03742 56.0461 85.0247 H 0.0 **** 0.0
56136 H 5.70074 56.0489 83.1738 H 0.0 **** 0.0
56137 H 4.87962 57.3671 82.3533 H 0.0 **** 0.0
56138 H 4.05703 55.7778 82.4262 H 0.0 **** 0.0
56139 H 4.64263 58.1257 86.0669 H 0.0 **** 0.0
56140 H 5.2103 58.7945 84.4635 H 0.0 **** 0.0
56141 H 6.10424 57.47 85.1224 H 0.0 **** 0.0
56142 H 7.78117 61.0337 75.7166 H 0.0 **** 0.0
56143 H 4.8663 57.3081 61.977 H 0.0 **** 0.0
56144 H 5.32783 56.9846 59.5038 H 0.0 **** 0.0
56145 H 6.90031 57.5218 57.4981 H 0.0 **** 0.0
56146 H 7.90491 58.8763 55.4906 H 0.0 **** 0.0
56147 H 9.63935 60.4722 54.69 H 0.0 **** 0.0
56148 H 13.9222 62.0943 56.4158 H 0.0 **** 0.0
56149 H 11.9525 61.8092 54.96 H 0.0 **** 0.0
56150 H 13.5315 60.7702 63.1526 H 0.0 **** 0.0
56151 H 15.0356 61.7533 62.0258 H 0.0 **** 0.0
56152 H 15.7309 60.019 61.8068 H 0.0 **** 0.0
56153 H 17.5573 61.4208 61.4026 H 0.0 **** 0.0
56154 H 16.6679 62.668 60.5814 H 0.0 **** 0.0
56155 H 17.315 60.0084 59.3742 H 0.0 **** 0.0
56156 H 17.8115 61.5662 58.8244 H 0.0 **** 0.0
56157 C 67.2937 11.4628 86.902 C 0.0 **** 0.0
56158 C 67.4454 12.9951 86.7193 C 0.0 **** 0.0
56159 C 68.4568 13.2714 85.6174 C 0.0 **** 0.0
56160 C 69.8686 12.6501 85.933 C 0.0 **** 0.0
56161 C 69.6793 11.4929 86.8977 C 0.0 **** 0.0
56162 O 68.5106 10.7302 86.6423 O 0.0 **** 0.0
56163 C 70.8963 13.7211 86.3921 C 0.0 **** 0.0
56164 C 71.1079 14.8197 85.2333 C 0.0 **** 0.0
56165 C 69.7866 15.17 84.5537 C 0.0 **** 0.0
56166 C 68.5407 14.8178 85.4052 C 0.0 **** 0.0
56167 O 72.096 14.4176 84.2532 O 0.0 **** 0.0
56168 C 73.3647 14.0608 84.7675 C 0.0 **** 0.0
56169 C 73.2618 12.8946 85.8029 C 0.0 **** 0.0
56170 C 72.2964 13.2755 86.9266 C 0.0 **** 0.0
56171 C 74.6595 12.5496 86.2975 C 0.0 **** 0.0
56172 C 75.4396 13.5859 86.9379 C 0.0 **** 0.0
56173 C 75.5471 14.7569 85.925 C 0.0 **** 0.0
56174 C 74.2026 15.2599 85.3399 C 0.0 **** 0.0
56175 C 76.5311 15.8825 86.4133 C 0.0 **** 0.0
56176 C 77.8905 15.2985 86.6657 C 0.0 **** 0.0
56177 C 77.777 14.223 87.7877 C 0.0 **** 0.0
56178 C 76.8449 13.0706 87.4501 C 0.0 **** 0.0
56179 C 77.5114 11.9914 86.5572 C 0.0 **** 0.0
56180 C 76.7497 11.8001 85.2435 C 0.0 **** 0.0
56181 C 75.3016 11.5692 85.5579 C 0.0 **** 0.0
56182 O 79.034 13.7473 88.3934 O 0.0 **** 0.0
56183 C 80.1199 14.2218 87.6431 C 0.0 **** 0.0
56184 C 80.1939 15.7833 87.7293 C 0.0 **** 0.0
56185 C 78.8847 16.3814 87.1461 C 0.0 **** 0.0
56186 C 74.5346 16.3094 84.317 C 0.0 **** 0.0
56187 C 75.2987 17.5096 84.8459 C 0.0 **** 0.0
56188 C 76.6705 17.0187 85.341 C 0.0 **** 0.0
56189 C 75.3781 18.6178 83.8094 C 0.0 **** 0.0
56190 C 75.5643 18.2629 82.4969 C 0.0 **** 0.0
56191 C 75.5033 16.837 82.0825 C 0.0 **** 0.0
56192 C 74.5658 16.0544 82.964 C 0.0 **** 0.0
56193 C 75.651 19.3516 81.4494 C 0.0 **** 0.0
56194 C 76.4393 20.5589 81.9969 C 0.0 **** 0.0
56195 C 76.0029 20.9576 83.3659 C 0.0 **** 0.0
56196 C 75.3923 20.0486 84.1752 C 0.0 **** 0.0
56197 C 74.9465 20.5063 85.5605 C 0.0 **** 0.0
56198 C 74.625 21.9877 85.6353 C 0.0 **** 0.0
56199 C 75.8697 22.7557 85.1937 C 0.0 **** 0.0
56200 C 76.2119 22.4326 83.7255 C 0.0 **** 0.0
56201 C 79.044 17.5021 86.1133 C 0.0 **** 0.0
56202 C 77.6437 18.0952 85.827 C 0.0 **** 0.0
56203 C 81.4495 16.3353 86.9821 C 0.0 **** 0.0
56204 C 81.5866 17.8648 87.2622 C 0.0 **** 0.0
56205 S 80.1578 18.8187 86.6775 S 0.0 **** 0.0
56206 C 82.8812 18.3894 86.5956 C 0.0 **** 0.0
56207 C 84.0599 17.6601 87.1792 C 0.0 **** 0.0
56208 C 84.0137 16.1385 86.9497 C 0.0 **** 0.0
56209 C 82.6954 15.59 87.5343 C 0.0 **** 0.0
56210 C 85.2066 15.5123 87.725 C 0.0 **** 0.0
56211 C 86.6025 16.0955 87.3282 C 0.0 **** 0.0
56212 C 86.5779 17.5715 87.5554 C 0.0 **** 0.0
56213 C 85.4084 18.2182 86.7647 C 0.0 **** 0.0
56214 C 87.895 18.2575 87.1405 C 0.0 **** 0.0
56215 C 89.206 17.5465 87.6366 C 0.0 **** 0.0
56216 C 89.0978 16.0164 87.6234 C 0.0 **** 0.0
56217 C 87.724 15.5569 88.1945 C 0.0 **** 0.0
56218 C 82.5356 14.1015 87.3046 C 0.0 **** 0.0
56219 C 81.3887 13.6382 88.2032 C 0.0 **** 0.0
56220 C 85.1173 14.0244 87.9642 C 0.0 **** 0.0
56221 C 83.9043 13.3052 87.2355 C 0.0 **** 0.0
56222 C 87.6487 14.0065 88.4066 C 0.0 **** 0.0
56223 C 86.4572 13.3165 87.6474 C 0.0 **** 0.0
56224 C 90.3565 15.3143 88.2408 C 0.0 **** 0.0
56225 C 90.0501 14.0463 89.0516 C 0.0 **** 0.0
56226 C 88.9543 13.2707 88.2918 C 0.0 **** 0.0
56227 O 90.1821 18.0206 86.8111 O 0.0 **** 0.0
56228 C 90.5676 19.3298 87.2452 C 0.0 **** 0.0
56229 C 89.4091 20.1614 87.9728 C 0.0 **** 0.0
56230 C 87.9487 19.7 87.6036 C 0.0 **** 0.0
56231 C 89.5643 21.7008 87.766 C 0.0 **** 0.0
56232 C 91.0391 21.9849 87.8682 C 0.0 **** 0.0
56233 C 91.8056 21.5255 86.6017 C 0.0 **** 0.0
56234 C 91.341 20.1083 86.1033 C 0.0 **** 0.0
56235 C 92.485 19.2233 85.52 C 0.0 **** 0.0
56236 C 93.3969 20.0349 84.6495 C 0.0 **** 0.0
56237 C 93.9579 21.2804 85.4434 C 0.0 **** 0.0
56238 N 93.2808 21.5509 86.7192 N 0.0 **** 0.0
56239 C 83.8323 11.8453 87.7856 C 0.0 **** 0.0
56240 C 85.1799 11.0863 87.6058 C 0.0 **** 0.0
56241 C 86.3604 11.8888 88.1886 C 0.0 **** 0.0
56242 O 85.0575 9.8467 88.2838 O 0.0 **** 0.0
56243 C 84.0654 9.07564 87.6676 C 0.0 **** 0.0
56244 C 82.7367 9.83842 87.6775 C 0.0 **** 0.0
56245 O 82.8679 11.0851 87.0568 O 0.0 **** 0.0
56246 C 82.0899 9.91434 89.1441 C 0.0 **** 0.0
56247 C 82.6548 8.90192 90.1228 C 0.0 **** 0.0
56248 C 82.9274 7.59999 89.4584 C 0.0 **** 0.0
56249 C 83.9736 7.67247 88.3609 C 0.0 **** 0.0
56250 C 88.7594 11.7907 88.7145 C 0.0 **** 0.0
56251 C 87.6768 11.1823 87.841 C 0.0 **** 0.0
56252 C 91.3239 13.2409 89.0231 C 0.0 **** 0.0
56253 C 91.1679 11.7544 89.415 C 0.0 **** 0.0
56254 C 90.0903 11.0739 88.558 C 0.0 **** 0.0
56255 C 92.3977 13.9824 89.8507 C 0.0 **** 0.0
56256 C 92.7692 15.307 89.1612 C 0.0 **** 0.0
56257 C 91.5022 16.1441 88.8331 C 0.0 **** 0.0
56258 O 92.4219 11.1685 89.1107 O 0.0 **** 0.0
56259 C 93.4301 11.5948 90.0521 C 0.0 **** 0.0
56260 C 93.6472 13.1515 89.8928 C 0.0 **** 0.0
56261 C 93.93 16.0799 89.843 C 0.0 **** 0.0
56262 C 95.1315 15.1426 90.2359 C 0.0 **** 0.0
56263 C 94.6727 13.751 90.8325 C 0.0 **** 0.0
56264 C 96.0069 15.7378 91.3581 C 0.0 **** 0.0
56265 C 96.0473 17.2594 91.2993 C 0.0 **** 0.0
56266 C 94.6431 17.8224 91.6212 C 0.0 **** 0.0
56267 C 93.4992 16.9569 91.0335 C 0.0 **** 0.0
56268 C 95.9594 12.8348 91.0624 C 0.0 **** 0.0
56269 C 95.9712 11.3758 90.5409 C 0.0 **** 0.0
56270 C 94.7899 10.9911 89.6318 C 0.0 **** 0.0
56271 C 97.409 15.0647 91.2981 C 0.0 **** 0.0
56272 C 97.3047 13.5917 90.8945 C 0.0 **** 0.0
56273 C 74.1293 22.5089 87.0365 C 0.0 **** 0.0
56274 C 74.9441 21.9674 88.1925 C 0.0 **** 0.0
56275 C 74.0074 24.0342 87.0768 C 0.0 **** 0.0
56276 O 87.0612 19.9285 88.6574 O 0.0 **** 0.0
56277 C 94.7401 9.48865 89.5098 C 0.0 **** 0.0
56278 C 95.9438 9.03019 88.683 C 0.0 **** 0.0
56279 C 97.2877 9.52152 89.3025 C 0.0 **** 0.0
56280 C 97.234 11.0064 89.7812 C 0.0 **** 0.0
56281 C 98.5241 11.4029 90.5852 C 0.0 **** 0.0
56282 C 98.9901 10.3785 91.5995 C 0.0 **** 0.0
56283 C 99.1474 9.04646 90.8936 C 0.0 **** 0.0
56284 C 97.727 8.61017 90.4265 C 0.0 **** 0.0
56285 C 99.8352 8.01303 91.8304 C 0.0 **** 0.0
56286 C 101.295 8.44236 92.1003 C 0.0 **** 0.0
56287 C 101.543 9.96945 92.096 C 0.0 **** 0.0
56288 C 100.252 10.7714 92.3617 C 0.0 **** 0.0
56289 C 100.579 12.2584 92.4123 C 0.0 **** 0.0
56290 C 99.2737 13.055 92.438 C 0.0 **** 0.0
56291 C 98.5828 12.8222 91.1134 C 0.0 **** 0.0
56292 C 101.484 12.5096 93.607 C 0.0 **** 0.0
56293 C 102.821 11.7939 93.2709 C 0.0 **** 0.0
56294 C 102.686 10.3377 93.1142 C 0.0 **** 0.0
56295 C 98.2062 15.2115 92.624 C 0.0 **** 0.0
56296 C 99.5839 14.527 92.5903 C 0.0 **** 0.0
56297 C 101.713 14.0416 93.8332 C 0.0 **** 0.0
56298 C 100.369 14.7773 93.8756 C 0.0 **** 0.0
56299 C 100.477 16.3069 94.2723 C 0.0 **** 0.0
56300 C 101.932 16.7507 94.5177 C 0.0 **** 0.0
56301 C 102.599 15.8177 95.5535 C 0.0 **** 0.0
56302 C 102.424 14.4076 95.138 C 0.0 **** 0.0
56303 O 102.85 13.5274 95.8298 O 0.0 **** 0.0
56304 H 66.5068 11.0493 86.2277 H 0.0 **** 0.0
56305 H 66.9503 11.1585 87.9504 H 0.0 **** 0.0
56306 H 66.4203 13.441 86.5088 H 0.0 **** 0.0
56307 H 67.7196 13.403 87.6854 H 0.0 **** 0.0
56308 H 68.0323 12.8172 84.6247 H 0.0 **** 0.0
56309 H 70.3309 12.2095 85.007 H 0.0 **** 0.0
56310 H 69.6453 11.9365 87.9274 H 0.0 **** 0.0
56311 H 70.5695 10.8095 86.8503 H 0.0 **** 0.0
56312 H 70.426 14.2238 87.26 H 0.0 **** 0.0
56313 H 71.4581 15.8053 85.7244 H 0.0 **** 0.0
56314 H 69.6507 14.6834 83.5824 H 0.0 **** 0.0
56315 H 69.7454 16.2727 84.3835 H 0.0 **** 0.0
56316 H 67.6433 15.2132 84.8548 H 0.0 **** 0.0
56317 H 68.4853 15.4332 86.3448 H 0.0 **** 0.0
56318 H 73.9344 13.5309 83.9125 H 0.0 **** 0.0
56319 H 72.8268 12.0049 85.3696 H 0.0 **** 0.0
56320 H 72.7145 14.1842 87.4412 H 0.0 **** 0.0
56321 H 72.1935 12.4351 87.6764 H 0.0 **** 0.0
56322 H 73.6133 15.7822 86.165 H 0.0 **** 0.0
56323 H 78.5737 12.2089 86.3431 H 0.0 **** 0.0
56324 H 77.5572 11.0373 87.1053 H 0.0 **** 0.0
56325 H 77.2193 10.9894 84.706 H 0.0 **** 0.0
56326 H 76.8162 12.6855 84.6291 H 0.0 **** 0.0
56327 H 74.776 10.9451 84.8525 H 0.0 **** 0.0
56328 H 74.7476 17.8951 85.7055 H 0.0 **** 0.0
56329 H 76.5109 16.3865 82.1776 H 0.0 **** 0.0
56330 H 75.1322 16.7143 81.0616 H 0.0 **** 0.0
56331 H 74.1223 15.1756 82.5134 H 0.0 **** 0.0
56332 H 76.2477 19.0035 80.5278 H 0.0 **** 0.0
56333 H 74.5799 19.6307 81.1021 H 0.0 **** 0.0
56334 H 76.2809 21.4339 81.3137 H 0.0 **** 0.0
56335 H 77.5451 20.263 81.9858 H 0.0 **** 0.0
56336 H 73.9979 19.9747 85.851 H 0.0 **** 0.0
56337 H 75.7615 20.1728 86.2752 H 0.0 **** 0.0
56338 H 73.8069 22.1753 84.9119 H 0.0 **** 0.0
56339 H 76.7406 22.482 85.8301 H 0.0 **** 0.0
56340 H 75.749 23.8712 85.2279 H 0.0 **** 0.0
56341 H 77.2621 22.6323 83.4664 H 0.0 **** 0.0
56342 H 75.5161 23.0584 83.0909 H 0.0 **** 0.0
56343 H 77.62 18.917 85.088 H 0.0 **** 0.0
56344 H 82.9501 19.4842 86.7012 H 0.0 **** 0.0
56345 H 85.3678 19.2915 87.0492 H 0.0 **** 0.0
56346 H 81.2885 12.5698 88.1116 H 0.0 **** 0.0
56347 H 91.3374 19.1326 88.0409 H 0.0 **** 0.0
56348 H 89.4939 19.9669 89.0487 H 0.0 **** 0.0
56349 H 87.616 20.2864 86.7229 H 0.0 **** 0.0
56350 H 89.2271 22.062 86.7437 H 0.0 **** 0.0
56351 H 88.9904 22.1821 88.5658 H 0.0 **** 0.0
56352 H 91.4576 21.5582 88.7704 H 0.0 **** 0.0
56353 H 91.1038 23.0812 87.9458 H 0.0 **** 0.0
56354 H 91.5154 22.2235 85.8087 H 0.0 **** 0.0
56355 H 90.6323 20.2576 85.2737 H 0.0 **** 0.0
56356 H 93.1145 18.781 86.3454 H 0.0 **** 0.0
56357 H 92.0597 18.3511 84.9408 H 0.0 **** 0.0
56358 H 92.8872 20.3794 83.7094 H 0.0 **** 0.0
56359 H 94.2413 19.4055 84.2623 H 0.0 **** 0.0
56360 H 93.8314 22.171 84.7845 H 0.0 **** 0.0
56361 H 95.0399 21.0984 85.6115 H 0.0 **** 0.0
56362 H 93.613 20.9271 87.467 H 0.0 **** 0.0
56363 H 84.2979 9.00657 86.6167 H 0.0 **** 0.0
56364 H 82.0587 9.27359 86.9983 H 0.0 **** 0.0
56365 H 82.2063 10.8992 89.5905 H 0.0 **** 0.0
56366 H 81.0101 9.72768 89.0665 H 0.0 **** 0.0
56367 H 81.9223 8.7277 90.9426 H 0.0 **** 0.0
56368 H 83.5994 9.30104 90.4744 H 0.0 **** 0.0
56369 H 82.0164 7.10419 89.0772 H 0.0 **** 0.0
56370 H 83.3503 6.9646 90.2502 H 0.0 **** 0.0
56371 H 83.6662 6.96288 87.5767 H 0.0 **** 0.0
56372 H 84.9512 7.23777 88.6972 H 0.0 **** 0.0
56373 H 87.6235 10.103 88.0641 H 0.0 **** 0.0
56374 H 89.9928 9.99484 88.9163 H 0.0 **** 0.0
56375 H 91.7821 16.8828 88.0711 H 0.0 **** 0.0
56376 H 94.2998 16.7933 89.0168 H 0.0 **** 0.0
56377 H 95.7446 14.9723 89.2888 H 0.0 **** 0.0
56378 H 95.6582 15.5041 92.3712 H 0.0 **** 0.0
56379 H 96.3334 17.5449 90.2841 H 0.0 **** 0.0
56380 H 96.8076 17.7552 91.9904 H 0.0 **** 0.0
56381 H 94.6486 18.8946 91.301 H 0.0 **** 0.0
56382 H 94.4455 17.8005 92.6991 H 0.0 **** 0.0
56383 H 92.704 17.6614 90.8031 H 0.0 **** 0.0
56384 H 93.1268 16.2769 91.8553 H 0.0 **** 0.0
56385 H 73.0961 22.1003 87.2146 H 0.0 **** 0.0
56386 H 74.7275 22.5896 89.0766 H 0.0 **** 0.0
56387 H 76.0034 22.17 87.9609 H 0.0 **** 0.0
56388 H 74.776 20.9495 88.4007 H 0.0 **** 0.0
56389 H 73.3805 24.2935 87.9695 H 0.0 **** 0.0
56390 H 73.5288 24.4816 86.1884 H 0.0 **** 0.0
56391 H 74.9903 24.465 87.2464 H 0.0 **** 0.0
56392 H 87.0383 20.9293 88.8065 H 0.0 **** 0.0
56393 H 93.7906 9.14715 89.0023 H 0.0 **** 0.0
56394 H 95.8895 7.93445 88.368 H 0.0 **** 0.0
56395 H 97.7843 7.55078 89.9842 H 0.0 **** 0.0
56396 H 99.8381 7.02238 91.2151 H 0.0 **** 0.0
56397 H 102.038 7.95802 91.4887 H 0.0 **** 0.0
56398 H 103.634 12.0985 93.9491 H 0.0 **** 0.0
56399 H 103.736 9.92724 92.9134 H 0.0 **** 0.0
56400 H 98.2944 16.2943 92.7366 H 0.0 **** 0.0
56401 H 100.115 16.9844 93.4821 H 0.0 **** 0.0
56402 H 99.8883 16.4717 95.1964 H 0.0 **** 0.0
56403 H 101.906 17.7939 94.82 H 0.0 **** 0.0
56404 H 102.48 16.6073 93.5345 H 0.0 **** 0.0
56405 H 102.173 16.0604 96.5647 H 0.0 **** 0.0
56406 H 103.699 16.0293 95.5988 H 0.0 **** 0.0
@<TRIPOS>BOND
1 3 2 un
2 4 3 un
3 5 4 un
4 6 5 un
5 1 2 un
6 1 6 un
7 8 7 1
8 9 8 un
9 10 9 1
10 4 7 1
11 3 10 1
12 12 11 un
13 13 12 un
14 14 13 un
15 9 11 un
16 8 14 un
17 16 15 un
18 17 16 un
19 18 17 un
20 14 15 un
21 13 18 un
22 20 19 1
23 21 20 1
24 22 21 un
25 17 19 1
26 16 22 un
27 24 23 1
28 25 24 un
29 26 25 1
30 20 23 1
31 19 26 1
32 28 27 un
33 29 28 un
34 30 29 un
35 22 27 un
36 21 30 un
37 32 31 1
38 33 32 un
39 34 33 1
40 29 31 1
41 28 34 1
42 36 35 1
43 37 36 1
44 38 37 un
45 33 35 1
46 32 38 un
47 40 39 un
48 41 40 un
49 42 41 un
50 38 39 un
51 37 42 un
52 44 43 1
53 45 44 1
54 46 45 1
55 42 43 1
56 41 46 1
57 48 47 1
58 49 48 un
59 40 49 un
60 46 47 1
61 51 50 un
62 52 51 un
63 53 52 un
64 49 50 un
65 48 53 un
66 6 54 1
67 54 55 1
68 1 56 1
69 5 57 1
70 2 58 1
71 11 59 1
72 12 60 1
73 18 61 1
74 25 62 1
75 24 63 1
76 30 64 1
77 27 65 1
78 34 66 2
79 31 67 2
80 53 68 1
81 52 69 1
82 7 70 1
83 7 71 1
84 10 72 1
85 10 73 1
86 15 74 1
87 23 75 1
88 23 76 1
89 24 77 1
90 25 78 1
91 26 79 1
92 26 80 1
93 35 81 1
94 35 82 1
95 36 83 1
96 36 84 1
97 43 85 1
98 43 86 1
99 44 87 1
100 44 88 1
101 45 89 1
102 45 90 1
103 46 91 1
104 47 92 1
105 47 93 1
106 50 94 1
107 51 95 1
108 54 96 1
109 54 97 1
110 55 98 1
111 55 99 1
112 55 100 1
113 56 101 1
114 56 102 1
115 56 103 1
116 57 104 1
117 57 105 1
118 57 106 1
119 58 107 1
120 58 108 1
121 58 109 1
122 59 110 1
123 59 111 1
124 59 112 1
125 60 113 1
126 60 114 1
127 60 115 1
128 61 116 1
129 62 117 1
130 62 118 1
131 62 119 1
132 63 120 1
133 63 121 1
134 63 122 1
135 64 123 1
136 65 124 1
137 68 125 1
138 68 126 1
139 68 127 1
140 69 128 1
141 69 129 1
142 69 130 1
143 133 132 un
144 134 133 un
145 135 134 un
146 136 135 un
147 131 132 un
148 131 136 un
149 138 137 1
150 139 138 un
151 140 139 1
152 134 137 1
153 133 140 1
154 142 141 un
155 143 142 un
156 144 143 un
157 139 141 un
158 138 144 un
159 146 145 un
160 147 146 un
161 148 147 un
162 144 145 un
163 143 148 un
164 150 149 1
165 151 150 1
166 152 151 un
167 147 149 1
168 146 152 un
169 154 153 1
170 155 154 un
171 156 155 1
172 150 153 1
173 149 156 1
174 158 157 un
175 159 158 un
176 160 159 un
177 152 157 un
178 151 160 un
179 162 161 1
180 163 162 un
181 164 163 1
182 159 161 1
183 158 164 1
184 166 165 1
185 167 166 1
186 168 167 un
187 163 165 1
188 162 168 un
189 170 169 un
190 171 170 un
191 172 171 un
192 168 169 un
193 167 172 un
194 174 173 1
195 175 174 1
196 176 175 1
197 172 173 1
198 171 176 1
199 178 177 1
200 179 178 un
201 170 179 un
202 176 177 1
203 181 180 un
204 182 181 un
205 183 182 un
206 179 180 un
207 178 183 un
208 136 184 1
209 184 185 1
210 131 186 1
211 135 187 1
212 132 188 1
213 141 189 1
214 142 190 1
215 148 191 1
216 155 192 1
217 154 193 1
218 160 194 1
219 157 195 1
220 164 196 2
221 161 197 2
222 183 198 1
223 182 199 1
224 137 200 1
225 137 201 1
226 140 202 1
227 140 203 1
228 145 204 1
229 153 205 1
230 153 206 1
231 154 207 1
232 155 208 1
233 156 209 1
234 156 210 1
235 165 211 1
236 165 212 1
237 166 213 1
238 166 214 1
239 173 215 1
240 173 216 1
241 174 217 1
242 174 218 1
243 175 219 1
244 175 220 1
245 176 221 1
246 177 222 1
247 177 223 1
248 180 224 1
249 181 225 1
250 184 226 1
251 184 227 1
252 185 228 1
253 185 229 1
254 185 230 1
255 186 231 1
256 186 232 1
257 186 233 1
258 187 234 1
259 187 235 1
260 187 236 1
261 188 237 1
262 188 238 1
263 188 239 1
264 189 240 1
265 189 241 1
266 189 242 1
267 190 243 1
268 190 244 1
269 190 245 1
270 191 246 1
271 192 247 1
272 192 248 1
273 192 249 1
274 193 250 1
275 193 251 1
276 193 252 1
277 194 253 1
278 195 254 1
279 198 255 1
280 198 256 1
281 198 257 1
282 199 258 1
283 199 259 1
284 199 260 1
285 263 262 un
286 264 263 un
287 265 264 un
288 266 265 un
289 261 262 un
290 261 266 un
291 268 267 1
292 269 268 un
293 270 269 1
294 264 267 1
295 263 270 1
296 272 271 un
297 273 272 un
298 274 273 un
299 269 271 un
300 268 274 un
301 276 275 un
302 277 276 un
303 278 277 un
304 274 275 un
305 273 278 un
306 280 279 1
307 281 280 1
308 282 281 un
309 277 279 1
310 276 282 un
311 284 283 1
312 285 284 un
313 286 285 1
314 280 283 1
315 279 286 1
316 288 287 un
317 289 288 un
318 290 289 un
319 282 287 un
320 281 290 un
321 292 291 1
322 293 292 un
323 294 293 1
324 289 291 1
325 288 294 1
326 296 295 1
327 297 296 1
328 298 297 un
329 293 295 1
330 292 298 un
331 300 299 un
332 301 300 un
333 302 301 un
334 298 299 un
335 297 302 un
336 304 303 1
337 305 304 1
338 306 305 1
339 302 303 1
340 301 306 1
341 308 307 1
342 309 308 un
343 300 309 un
344 306 307 1
345 311 310 un
346 312 311 un
347 313 312 un
348 309 310 un
349 308 313 un
350 266 314 1
351 314 315 1
352 261 316 1
353 265 317 1
354 262 318 1
355 271 319 1
356 272 320 1
357 278 321 1
358 285 322 1
359 284 323 1
360 290 324 1
361 287 325 1
362 294 326 2
363 291 327 2
364 313 328 1
365 312 329 1
366 267 330 1
367 267 331 1
368 270 332 1
369 270 333 1
370 275 334 1
371 283 335 1
372 283 336 1
373 284 337 1
374 285 338 1
375 286 339 1
376 286 340 1
377 295 341 1
378 295 342 1
379 296 343 1
380 296 344 1
381 303 345 1
382 303 346 1
383 304 347 1
384 304 348 1
385 305 349 1
386 305 350 1
387 306 351 1
388 307 352 1
389 307 353 1
390 310 354 1
391 311 355 1
392 314 356 1
393 314 357 1
394 315 358 1
395 315 359 1
396 315 360 1
397 316 361 1
398 316 362 1
399 316 363 1
400 317 364 1
401 317 365 1
402 317 366 1
403 318 367 1
404 318 368 1
405 318 369 1
406 319 370 1
407 319 371 1
408 319 372 1
409 320 373 1
410 320 374 1
411 320 375 1
412 321 376 1
413 322 377 1
414 322 378 1
415 322 379 1
416 323 380 1
417 323 381 1
418 323 382 1
419 324 383 1
420 325 384 1
421 328 385 1
422 328 386 1
423 328 387 1
424 329 388 1
425 329 389 1
426 329 390 1
427 393 392 un
428 394 393 un
429 395 394 un
430 396 395 un
431 391 392 un
432 391 396 un
433 398 397 1
434 399 398 un
435 400 399 1
436 394 397 1
437 393 400 1
438 402 401 un
439 403 402 un
440 404 403 un
441 399 401 un
442 398 404 un
443 406 405 un
444 407 406 un
445 408 407 un
446 404 405 un
447 403 408 un
448 410 409 1
449 411 410 1
450 412 411 un
451 407 409 1
452 406 412 un
453 414 413 1
454 415 414 un
455 416 415 1
456 410 413 1
457 409 416 1
458 418 417 un
459 419 418 un
460 420 419 un
461 412 417 un
462 411 420 un
463 422 421 1
464 423 422 un
465 424 423 1
466 419 421 1
467 418 424 1
468 426 425 1
469 427 426 1
470 428 427 un
471 423 425 1
472 422 428 un
473 430 429 un
474 431 430 un
475 432 431 un
476 428 429 un
477 427 432 un
478 434 433 1
479 435 434 1
480 436 435 1
481 432 433 1
482 431 436 1
483 438 437 1
484 439 438 un
485 430 439 un
486 436 437 1
487 441 440 un
488 442 441 un
489 443 442 un
490 439 440 un
491 438 443 un
492 396 444 1
493 444 445 1
494 391 446 1
495 395 447 1
496 392 448 1
497 401 449 1
498 402 450 1
499 408 451 1
500 415 452 1
501 414 453 1
502 420 454 1
503 417 455 1
504 424 456 2
505 421 457 2
506 443 458 1
507 442 459 1
508 397 460 1
509 397 461 1
510 400 462 1
511 400 463 1
512 405 464 1
513 413 465 1
514 413 466 1
515 414 467 1
516 415 468 1
517 416 469 1
518 416 470 1
519 425 471 1
520 425 472 1
521 426 473 1
522 426 474 1
523 433 475 1
524 433 476 1
525 434 477 1
526 434 478 1
527 435 479 1
528 435 480 1
529 436 481 1
530 437 482 1
531 437 483 1
532 440 484 1
533 441 485 1
534 444 486 1
535 444 487 1
536 445 488 1
537 445 489 1
538 445 490 1
539 446 491 1
540 446 492 1
541 446 493 1
542 447 494 1
543 447 495 1
544 447 496 1
545 448 497 1
546 448 498 1
547 448 499 1
548 449 500 1
549 449 501 1
550 449 502 1
551 450 503 1
552 450 504 1
553 450 505 1
554 451 506 1
555 452 507 1
556 452 508 1
557 452 509 1
558 453 510 1
559 453 511 1
560 453 512 1
561 454 513 1
562 455 514 1
563 458 515 1
564 458 516 1
565 458 517 1
566 459 518 1
567 459 519 1
568 459 520 1
569 523 522 un
570 524 523 un
571 525 524 un
572 526 525 un
573 521 522 un
574 521 526 un
575 528 527 1
576 529 528 un
577 530 529 1
578 524 527 1
579 523 530 1
580 532 531 un
581 533 532 un
582 534 533 un
583 529 531 un
584 528 534 un
585 536 535 un
586 537 536 un
587 538 537 un
588 534 535 un
589 533 538 un
590 540 539 1
591 541 540 1
592 542 541 un
593 537 539 1
594 536 542 un
595 544 543 1
596 545 544 un
597 546 545 1
598 540 543 1
599 539 546 1
600 548 547 un
601 549 548 un
602 550 549 un
603 542 547 un
604 541 550 un
605 552 551 1
606 553 552 un
607 554 553 1
608 549 551 1
609 548 554 1
610 556 555 1
611 557 556 1
612 558 557 un
613 553 555 1
614 552 558 un
615 560 559 un
616 561 560 un
617 562 561 un
618 558 559 un
619 557 562 un
620 564 563 1
621 565 564 1
622 566 565 1
623 562 563 1
624 561 566 1
625 568 567 1
626 569 568 un
627 560 569 un
628 566 567 1
629 571 570 un
630 572 571 un
631 573 572 un
632 569 570 un
633 568 573 un
634 526 574 1
635 574 575 1
636 521 576 1
637 525 577 1
638 522 578 1
639 531 579 1
640 532 580 1
641 538 581 1
642 545 582 1
643 544 583 1
644 550 584 1
645 547 585 1
646 554 586 2
647 551 587 2
648 573 588 1
649 572 589 1
650 527 590 1
651 527 591 1
652 530 592 1
653 530 593 1
654 535 594 1
655 543 595 1
656 543 596 1
657 544 597 1
658 545 598 1
659 546 599 1
660 546 600 1
661 555 601 1
662 555 602 1
663 556 603 1
664 556 604 1
665 563 605 1
666 563 606 1
667 564 607 1
668 564 608 1
669 565 609 1
670 565 610 1
671 566 611 1
672 567 612 1
673 567 613 1
674 570 614 1
675 571 615 1
676 574 616 1
677 574 617 1
678 575 618 1
679 575 619 1
680 575 620 1
681 576 621 1
682 576 622 1
683 576 623 1
684 577 624 1
685 577 625 1
686 577 626 1
687 578 627 1
688 578 628 1
689 578 629 1
690 579 630 1
691 579 631 1
692 579 632 1
693 580 633 1
694 580 634 1
695 580 635 1
696 581 636 1
697 582 637 1
698 582 638 1
699 582 639 1
700 583 640 1
701 583 641 1
702 583 642 1
703 584 643 1
704 585 644 1
705 588 645 1
706 588 646 1
707 588 647 1
708 589 648 1
709 589 649 1
710 589 650 1
711 653 652 un
712 654 653 un
713 655 654 un
714 656 655 un
715 651 652 un
716 651 656 un
717 658 657 1
718 659 658 un
719 660 659 1
720 654 657 1
721 653 660 1
722 662 661 un
723 663 662 un
724 664 663 un
725 659 661 un
726 658 664 un
727 666 665 un
728 667 666 un
729 668 667 un
730 664 665 un
731 663 668 un
732 670 669 1
733 671 670 1
734 672 671 un
735 667 669 1
736 666 672 un
737 674 673 1
738 675 674 un
739 676 675 1
740 670 673 1
741 669 676 1
742 678 677 un
743 679 678 un
744 680 679 un
745 672 677 un
746 671 680 un
747 682 681 1
748 683 682 un
749 684 683 1
750 679 681 1
751 678 684 1
752 686 685 1
753 687 686 1
754 688 687 un
755 683 685 1
756 682 688 un
757 690 689 un
758 691 690 un
759 692 691 un
760 688 689 un
761 687 692 un
762 694 693 1
763 695 694 1
764 696 695 1
765 692 693 1
766 691 696 1
767 698 697 1
768 699 698 un
769 690 699 un
770 696 697 1
771 701 700 un
772 702 701 un
773 703 702 un
774 699 700 un
775 698 703 un
776 656 704 1
777 704 705 1
778 651 706 1
779 655 707 1
780 652 708 1
781 661 709 1
782 662 710 1
783 668 711 1
784 675 712 1
785 674 713 1
786 680 714 1
787 677 715 1
788 684 716 2
789 681 717 2
790 703 718 1
791 702 719 1
792 657 720 1
793 657 721 1
794 660 722 1
795 660 723 1
796 665 724 1
797 673 725 1
798 673 726 1
799 674 727 1
800 675 728 1
801 676 729 1
802 676 730 1
803 685 731 1
804 685 732 1
805 686 733 1
806 686 734 1
807 693 735 1
808 693 736 1
809 694 737 1
810 694 738 1
811 695 739 1
812 695 740 1
813 696 741 1
814 697 742 1
815 697 743 1
816 700 744 1
817 701 745 1
818 704 746 1
819 704 747 1
820 705 748 1
821 705 749 1
822 705 750 1
823 706 751 1
824 706 752 1
825 706 753 1
826 707 754 1
827 707 755 1
828 707 756 1
829 708 757 1
830 708 758 1
831 708 759 1
832 709 760 1
833 709 761 1
834 709 762 1
835 710 763 1
836 710 764 1
837 710 765 1
838 711 766 1
839 712 767 1
840 712 768 1
841 712 769 1
842 713 770 1
843 713 771 1
844 713 772 1
845 714 773 1
846 715 774 1
847 718 775 1
848 718 776 1
849 718 777 1
850 719 778 1
851 719 779 1
852 719 780 1
853 783 782 un
854 784 783 un
855 785 784 un
856 786 785 un
857 781 782 un
858 781 786 un
859 788 787 1
860 789 788 un
861 790 789 1
862 784 787 1
863 783 790 1
864 792 791 un
865 793 792 un
866 794 793 un
867 789 791 un
868 788 794 un
869 796 795 un
870 797 796 un
871 798 797 un
872 794 795 un
873 793 798 un
874 800 799 1
875 801 800 1
876 802 801 un
877 797 799 1
878 796 802 un
879 804 803 1
880 805 804 un
881 806 805 1
882 800 803 1
883 799 806 1
884 808 807 un
885 809 808 un
886 810 809 un
887 802 807 un
888 801 810 un
889 812 811 1
890 813 812 un
891 814 813 1
892 809 811 1
893 808 814 1
894 816 815 1
895 817 816 1
896 818 817 un
897 813 815 1
898 812 818 un
899 820 819 un
900 821 820 un
901 822 821 un
902 818 819 un
903 817 822 un
904 824 823 1
905 825 824 1
906 826 825 1
907 822 823 1
908 821 826 1
909 828 827 1
910 829 828 un
911 820 829 un
912 826 827 1
913 831 830 un
914 832 831 un
915 833 832 un
916 829 830 un
917 828 833 un
918 786 834 1
919 834 835 1
920 781 836 1
921 785 837 1
922 782 838 1
923 791 839 1
924 792 840 1
925 798 841 1
926 805 842 1
927 804 843 1
928 810 844 1
929 807 845 1
930 814 846 2
931 811 847 2
932 833 848 1
933 832 849 1
934 787 850 1
935 787 851 1
936 790 852 1
937 790 853 1
938 795 854 1
939 803 855 1
940 803 856 1
941 804 857 1
942 805 858 1
943 806 859 1
944 806 860 1
945 815 861 1
946 815 862 1
947 816 863 1
948 816 864 1
949 823 865 1
950 823 866 1
951 824 867 1
952 824 868 1
953 825 869 1
954 825 870 1
955 826 871 1
956 827 872 1
957 827 873 1
958 830 874 1
959 831 875 1
960 834 876 1
961 834 877 1
962 835 878 1
963 835 879 1
964 835 880 1
965 836 881 1
966 836 882 1
967 836 883 1
968 837 884 1
969 837 885 1
970 837 886 1
971 838 887 1
972 838 888 1
973 838 889 1
974 839 890 1
975 839 891 1
976 839 892 1
977 840 893 1
978 840 894 1
979 840 895 1
980 841 896 1
981 842 897 1
982 842 898 1
983 842 899 1
984 843 900 1
985 843 901 1
986 843 902 1
987 844 903 1
988 845 904 1
989 848 905 1
990 848 906 1
991 848 907 1
992 849 908 1
993 849 909 1
994 849 910 1
995 913 912 un
996 914 913 un
997 915 914 un
998 916 915 un
999 911 912 un
1000 911 916 un
1001 918 917 1
1002 919 918 un
1003 920 919 1
1004 914 917 1
1005 913 920 1
1006 922 921 un
1007 923 922 un
1008 924 923 un
1009 919 921 un
1010 918 924 un
1011 926 925 un
1012 927 926 un
1013 928 927 un
1014 924 925 un
1015 923 928 un
1016 930 929 1
1017 931 930 1
1018 932 931 un
1019 927 929 1
1020 926 932 un
1021 934 933 1
1022 935 934 un
1023 936 935 1
1024 930 933 1
1025 929 936 1
1026 938 937 un
1027 939 938 un
1028 940 939 un
1029 932 937 un
1030 931 940 un
1031 942 941 1
1032 943 942 un
1033 944 943 1
1034 939 941 1
1035 938 944 1
1036 946 945 1
1037 947 946 1
1038 948 947 un
1039 943 945 1
1040 942 948 un
1041 950 949 un
1042 951 950 un
1043 952 951 un
1044 948 949 un
1045 947 952 un
1046 954 953 1
1047 955 954 1
1048 956 955 1
1049 952 953 1
1050 951 956 1
1051 958 957 1
1052 959 958 un
1053 950 959 un
1054 956 957 1
1055 961 960 un
1056 962 961 un
1057 963 962 un
1058 959 960 un
1059 958 963 un
1060 916 964 1
1061 964 965 1
1062 911 966 1
1063 915 967 1
1064 912 968 1
1065 921 969 1
1066 922 970 1
1067 928 971 1
1068 935 972 1
1069 934 973 1
1070 940 974 1
1071 937 975 1
1072 944 976 2
1073 941 977 2
1074 963 978 1
1075 962 979 1
1076 917 980 1
1077 917 981 1
1078 920 982 1
1079 920 983 1
1080 925 984 1
1081 933 985 1
1082 933 986 1
1083 934 987 1
1084 935 988 1
1085 936 989 1
1086 936 990 1
1087 945 991 1
1088 945 992 1
1089 946 993 1
1090 946 994 1
1091 953 995 1
1092 953 996 1
1093 954 997 1
1094 954 998 1
1095 955 999 1
1096 955 1000 1
1097 956 1001 1
1098 957 1002 1
1099 957 1003 1
1100 960 1004 1
1101 961 1005 1
1102 964 1006 1
1103 964 1007 1
1104 965 1008 1
1105 965 1009 1
1106 965 1010 1
1107 966 1011 1
1108 966 1012 1
1109 966 1013 1
1110 967 1014 1
1111 967 1015 1
1112 967 1016 1
1113 968 1017 1
1114 968 1018 1
1115 968 1019 1
1116 969 1020 1
1117 969 1021 1
1118 969 1022 1
1119 970 1023 1
1120 970 1024 1
1121 970 1025 1
1122 971 1026 1
1123 972 1027 1
1124 972 1028 1
1125 972 1029 1
1126 973 1030 1
1127 973 1031 1
1128 973 1032 1
1129 974 1033 1
1130 975 1034 1
1131 978 1035 1
1132 978 1036 1
1133 978 1037 1
1134 979 1038 1
1135 979 1039 1
1136 979 1040 1
1137 1043 1042 un
1138 1044 1043 un
1139 1045 1044 un
1140 1046 1045 un
1141 1041 1042 un
1142 1041 1046 un
1143 1048 1047 1
1144 1049 1048 un
1145 1050 1049 1
1146 1044 1047 1
1147 1043 1050 1
1148 1052 1051 un
1149 1053 1052 un
1150 1054 1053 un
1151 1049 1051 un
1152 1048 1054 un
1153 1056 1055 un
1154 1057 1056 un
1155 1058 1057 un
1156 1054 1055 un
1157 1053 1058 un
1158 1060 1059 1
1159 1061 1060 1
1160 1062 1061 un
1161 1057 1059 1
1162 1056 1062 un
1163 1064 1063 1
1164 1065 1064 un
1165 1066 1065 1
1166 1060 1063 1
1167 1059 1066 1
1168 1068 1067 un
1169 1069 1068 un
1170 1070 1069 un
1171 1062 1067 un
1172 1061 1070 un
1173 1072 1071 1
1174 1073 1072 un
1175 1074 1073 1
1176 1069 1071 1
1177 1068 1074 1
1178 1076 1075 1
1179 1077 1076 1
1180 1078 1077 un
1181 1073 1075 1
1182 1072 1078 un
1183 1080 1079 un
1184 1081 1080 un
1185 1082 1081 un
1186 1078 1079 un
1187 1077 1082 un
1188 1084 1083 1
1189 1085 1084 1
1190 1086 1085 1
1191 1082 1083 1
1192 1081 1086 1
1193 1088 1087 1
1194 1089 1088 un
1195 1080 1089 un
1196 1086 1087 1
1197 1091 1090 un
1198 1092 1091 un
1199 1093 1092 un
1200 1089 1090 un
1201 1088 1093 un
1202 1046 1094 1
1203 1094 1095 1
1204 1041 1096 1
1205 1045 1097 1
1206 1042 1098 1
1207 1051 1099 1
1208 1052 1100 1
1209 1058 1101 1
1210 1065 1102 1
1211 1064 1103 1
1212 1070 1104 1
1213 1067 1105 1
1214 1074 1106 2
1215 1071 1107 2
1216 1093 1108 1
1217 1092 1109 1
1218 1047 1110 1
1219 1047 1111 1
1220 1050 1112 1
1221 1050 1113 1
1222 1055 1114 1
1223 1063 1115 1
1224 1063 1116 1
1225 1064 1117 1
1226 1065 1118 1
1227 1066 1119 1
1228 1066 1120 1
1229 1075 1121 1
1230 1075 1122 1
1231 1076 1123 1
1232 1076 1124 1
1233 1083 1125 1
1234 1083 1126 1
1235 1084 1127 1
1236 1084 1128 1
1237 1085 1129 1
1238 1085 1130 1
1239 1086 1131 1
1240 1087 1132 1
1241 1087 1133 1
1242 1090 1134 1
1243 1091 1135 1
1244 1094 1136 1
1245 1094 1137 1
1246 1095 1138 1
1247 1095 1139 1
1248 1095 1140 1
1249 1096 1141 1
1250 1096 1142 1
1251 1096 1143 1
1252 1097 1144 1
1253 1097 1145 1
1254 1097 1146 1
1255 1098 1147 1
1256 1098 1148 1
1257 1098 1149 1
1258 1099 1150 1
1259 1099 1151 1
1260 1099 1152 1
1261 1100 1153 1
1262 1100 1154 1
1263 1100 1155 1
1264 1101 1156 1
1265 1102 1157 1
1266 1102 1158 1
1267 1102 1159 1
1268 1103 1160 1
1269 1103 1161 1
1270 1103 1162 1
1271 1104 1163 1
1272 1105 1164 1
1273 1108 1165 1
1274 1108 1166 1
1275 1108 1167 1
1276 1109 1168 1
1277 1109 1169 1
1278 1109 1170 1
1279 1173 1172 un
1280 1174 1173 un
1281 1175 1174 un
1282 1176 1175 un
1283 1171 1172 un
1284 1171 1176 un
1285 1178 1177 1
1286 1179 1178 un
1287 1180 1179 1
1288 1174 1177 1
1289 1173 1180 1
1290 1182 1181 un
1291 1183 1182 un
1292 1184 1183 un
1293 1179 1181 un
1294 1178 1184 un
1295 1186 1185 un
1296 1187 1186 un
1297 1188 1187 un
1298 1184 1185 un
1299 1183 1188 un
1300 1190 1189 1
1301 1191 1190 1
1302 1192 1191 un
1303 1187 1189 1
1304 1186 1192 un
1305 1194 1193 1
1306 1195 1194 un
1307 1196 1195 1
1308 1190 1193 1
1309 1189 1196 1
1310 1198 1197 un
1311 1199 1198 un
1312 1200 1199 un
1313 1192 1197 un
1314 1191 1200 un
1315 1202 1201 1
1316 1203 1202 un
1317 1204 1203 1
1318 1199 1201 1
1319 1198 1204 1
1320 1206 1205 1
1321 1207 1206 1
1322 1208 1207 un
1323 1203 1205 1
1324 1202 1208 un
1325 1210 1209 un
1326 1211 1210 un
1327 1212 1211 un
1328 1208 1209 un
1329 1207 1212 un
1330 1214 1213 1
1331 1215 1214 1
1332 1216 1215 1
1333 1212 1213 1
1334 1211 1216 1
1335 1218 1217 1
1336 1219 1218 un
1337 1210 1219 un
1338 1216 1217 1
1339 1221 1220 un
1340 1222 1221 un
1341 1223 1222 un
1342 1219 1220 un
1343 1218 1223 un
1344 1176 1224 1
1345 1224 1225 1
1346 1171 1226 1
1347 1175 1227 1
1348 1172 1228 1
1349 1181 1229 1
1350 1182 1230 1
1351 1188 1231 1
1352 1195 1232 1
1353 1194 1233 1
1354 1200 1234 1
1355 1197 1235 1
1356 1204 1236 2
1357 1201 1237 2
1358 1223 1238 1
1359 1222 1239 1
1360 1177 1240 1
1361 1177 1241 1
1362 1180 1242 1
1363 1180 1243 1
1364 1185 1244 1
1365 1193 1245 1
1366 1193 1246 1
1367 1194 1247 1
1368 1195 1248 1
1369 1196 1249 1
1370 1196 1250 1
1371 1205 1251 1
1372 1205 1252 1
1373 1206 1253 1
1374 1206 1254 1
1375 1213 1255 1
1376 1213 1256 1
1377 1214 1257 1
1378 1214 1258 1
1379 1215 1259 1
1380 1215 1260 1
1381 1216 1261 1
1382 1217 1262 1
1383 1217 1263 1
1384 1220 1264 1
1385 1221 1265 1
1386 1224 1266 1
1387 1224 1267 1
1388 1225 1268 1
1389 1225 1269 1
1390 1225 1270 1
1391 1226 1271 1
1392 1226 1272 1
1393 1226 1273 1
1394 1227 1274 1
1395 1227 1275 1
1396 1227 1276 1
1397 1228 1277 1
1398 1228 1278 1
1399 1228 1279 1
1400 1229 1280 1
1401 1229 1281 1
1402 1229 1282 1
1403 1230 1283 1
1404 1230 1284 1
1405 1230 1285 1
1406 1231 1286 1
1407 1232 1287 1
1408 1232 1288 1
1409 1232 1289 1
1410 1233 1290 1
1411 1233 1291 1
1412 1233 1292 1
1413 1234 1293 1
1414 1235 1294 1
1415 1238 1295 1
1416 1238 1296 1
1417 1238 1297 1
1418 1239 1298 1
1419 1239 1299 1
1420 1239 1300 1
1421 1303 1302 un
1422 1304 1303 un
1423 1305 1304 un
1424 1306 1305 un
1425 1301 1302 un
1426 1301 1306 un
1427 1308 1307 1
1428 1309 1308 un
1429 1310 1309 1
1430 1304 1307 1
1431 1303 1310 1
1432 1312 1311 un
1433 1313 1312 un
1434 1314 1313 un
1435 1309 1311 un
1436 1308 1314 un
1437 1316 1315 un
1438 1317 1316 un
1439 1318 1317 un
1440 1314 1315 un
1441 1313 1318 un
1442 1320 1319 1
1443 1321 1320 1
1444 1322 1321 un
1445 1317 1319 1
1446 1316 1322 un
1447 1324 1323 1
1448 1325 1324 un
1449 1326 1325 1
1450 1320 1323 1
1451 1319 1326 1
1452 1328 1327 un
1453 1329 1328 un
1454 1330 1329 un
1455 1322 1327 un
1456 1321 1330 un
1457 1332 1331 1
1458 1333 1332 un
1459 1334 1333 1
1460 1329 1331 1
1461 1328 1334 1
1462 1336 1335 1
1463 1337 1336 1
1464 1338 1337 un
1465 1333 1335 1
1466 1332 1338 un
1467 1340 1339 un
1468 1341 1340 un
1469 1342 1341 un
1470 1338 1339 un
1471 1337 1342 un
1472 1344 1343 1
1473 1345 1344 1
1474 1346 1345 1
1475 1342 1343 1
1476 1341 1346 1
1477 1348 1347 1
1478 1349 1348 un
1479 1340 1349 un
1480 1346 1347 1
1481 1351 1350 un
1482 1352 1351 un
1483 1353 1352 un
1484 1349 1350 un
1485 1348 1353 un
1486 1306 1354 1
1487 1354 1355 1
1488 1301 1356 1
1489 1305 1357 1
1490 1302 1358 1
1491 1311 1359 1
1492 1312 1360 1
1493 1318 1361 1
1494 1325 1362 1
1495 1324 1363 1
1496 1330 1364 1
1497 1327 1365 1
1498 1334 1366 2
1499 1331 1367 2
1500 1353 1368 1
1501 1352 1369 1
1502 1307 1370 1
1503 1307 1371 1
1504 1310 1372 1
1505 1310 1373 1
1506 1315 1374 1
1507 1323 1375 1
1508 1323 1376 1
1509 1324 1377 1
1510 1325 1378 1
1511 1326 1379 1
1512 1326 1380 1
1513 1335 1381 1
1514 1335 1382 1
1515 1336 1383 1
1516 1336 1384 1
1517 1343 1385 1
1518 1343 1386 1
1519 1344 1387 1
1520 1344 1388 1
1521 1345 1389 1
1522 1345 1390 1
1523 1346 1391 1
1524 1347 1392 1
1525 1347 1393 1
1526 1350 1394 1
1527 1351 1395 1
1528 1354 1396 1
1529 1354 1397 1
1530 1355 1398 1
1531 1355 1399 1
1532 1355 1400 1
1533 1356 1401 1
1534 1356 1402 1
1535 1356 1403 1
1536 1357 1404 1
1537 1357 1405 1
1538 1357 1406 1
1539 1358 1407 1
1540 1358 1408 1
1541 1358 1409 1
1542 1359 1410 1
1543 1359 1411 1
1544 1359 1412 1
1545 1360 1413 1
1546 1360 1414 1
1547 1360 1415 1
1548 1361 1416 1
1549 1362 1417 1
1550 1362 1418 1
1551 1362 1419 1
1552 1363 1420 1
1553 1363 1421 1
1554 1363 1422 1
1555 1364 1423 1
1556 1365 1424 1
1557 1368 1425 1
1558 1368 1426 1
1559 1368 1427 1
1560 1369 1428 1
1561 1369 1429 1
1562 1369 1430 1
1563 1433 1432 un
1564 1434 1433 un
1565 1435 1434 un
1566 1436 1435 un
1567 1431 1432 un
1568 1431 1436 un
1569 1438 1437 1
1570 1439 1438 un
1571 1440 1439 1
1572 1434 1437 1
1573 1433 1440 1
1574 1442 1441 un
1575 1443 1442 un
1576 1444 1443 un
1577 1439 1441 un
1578 1438 1444 un
1579 1446 1445 un
1580 1447 1446 un
1581 1448 1447 un
1582 1444 1445 un
1583 1443 1448 un
1584 1450 1449 1
1585 1451 1450 1
1586 1452 1451 un
1587 1447 1449 1
1588 1446 1452 un
1589 1454 1453 1
1590 1455 1454 un
1591 1456 1455 1
1592 1450 1453 1
1593 1449 1456 1
1594 1458 1457 un
1595 1459 1458 un
1596 1460 1459 un
1597 1452 1457 un
1598 1451 1460 un
1599 1462 1461 1
1600 1463 1462 un
1601 1464 1463 1
1602 1459 1461 1
1603 1458 1464 1
1604 1466 1465 1
1605 1467 1466 1
1606 1468 1467 un
1607 1463 1465 1
1608 1462 1468 un
1609 1470 1469 un
1610 1471 1470 un
1611 1472 1471 un
1612 1468 1469 un
1613 1467 1472 un
1614 1474 1473 1
1615 1475 1474 1
1616 1476 1475 1
1617 1472 1473 1
1618 1471 1476 1
1619 1478 1477 1
1620 1479 1478 un
1621 1470 1479 un
1622 1476 1477 1
1623 1481 1480 un
1624 1482 1481 un
1625 1483 1482 un
1626 1479 1480 un
1627 1478 1483 un
1628 1436 1484 1
1629 1484 1485 1
1630 1431 1486 1
1631 1435 1487 1
1632 1432 1488 1
1633 1441 1489 1
1634 1442 1490 1
1635 1448 1491 1
1636 1455 1492 1
1637 1454 1493 1
1638 1460 1494 1
1639 1457 1495 1
1640 1464 1496 2
1641 1461 1497 2
1642 1483 1498 1
1643 1482 1499 1
1644 1437 1500 1
1645 1437 1501 1
1646 1440 1502 1
1647 1440 1503 1
1648 1445 1504 1
1649 1453 1505 1
1650 1453 1506 1
1651 1454 1507 1
1652 1455 1508 1
1653 1456 1509 1
1654 1456 1510 1
1655 1465 1511 1
1656 1465 1512 1
1657 1466 1513 1
1658 1466 1514 1
1659 1473 1515 1
1660 1473 1516 1
1661 1474 1517 1
1662 1474 1518 1
1663 1475 1519 1
1664 1475 1520 1
1665 1476 1521 1
1666 1477 1522 1
1667 1477 1523 1
1668 1480 1524 1
1669 1481 1525 1
1670 1484 1526 1
1671 1484 1527 1
1672 1485 1528 1
1673 1485 1529 1
1674 1485 1530 1
1675 1486 1531 1
1676 1486 1532 1
1677 1486 1533 1
1678 1487 1534 1
1679 1487 1535 1
1680 1487 1536 1
1681 1488 1537 1
1682 1488 1538 1
1683 1488 1539 1
1684 1489 1540 1
1685 1489 1541 1
1686 1489 1542 1
1687 1490 1543 1
1688 1490 1544 1
1689 1490 1545 1
1690 1491 1546 1
1691 1492 1547 1
1692 1492 1548 1
1693 1492 1549 1
1694 1493 1550 1
1695 1493 1551 1
1696 1493 1552 1
1697 1494 1553 1
1698 1495 1554 1
1699 1498 1555 1
1700 1498 1556 1
1701 1498 1557 1
1702 1499 1558 1
1703 1499 1559 1
1704 1499 1560 1
1705 1563 1562 un
1706 1564 1563 un
1707 1565 1564 un
1708 1566 1565 un
1709 1561 1562 un
1710 1561 1566 un
1711 1568 1567 1
1712 1569 1568 un
1713 1570 1569 1
1714 1564 1567 1
1715 1563 1570 1
1716 1572 1571 un
1717 1573 1572 un
1718 1574 1573 un
1719 1569 1571 un
1720 1568 1574 un
1721 1576 1575 un
1722 1577 1576 un
1723 1578 1577 un
1724 1574 1575 un
1725 1573 1578 un
1726 1580 1579 1
1727 1581 1580 1
1728 1582 1581 un
1729 1577 1579 1
1730 1576 1582 un
1731 1584 1583 1
1732 1585 1584 un
1733 1586 1585 1
1734 1580 1583 1
1735 1579 1586 1
1736 1588 1587 un
1737 1589 1588 un
1738 1590 1589 un
1739 1582 1587 un
1740 1581 1590 un
1741 1592 1591 1
1742 1593 1592 un
1743 1594 1593 1
1744 1589 1591 1
1745 1588 1594 1
1746 1596 1595 1
1747 1597 1596 1
1748 1598 1597 un
1749 1593 1595 1
1750 1592 1598 un
1751 1600 1599 un
1752 1601 1600 un
1753 1602 1601 un
1754 1598 1599 un
1755 1597 1602 un
1756 1604 1603 1
1757 1605 1604 1
1758 1606 1605 1
1759 1602 1603 1
1760 1601 1606 1
1761 1608 1607 1
1762 1609 1608 un
1763 1600 1609 un
1764 1606 1607 1
1765 1611 1610 un
1766 1612 1611 un
1767 1613 1612 un
1768 1609 1610 un
1769 1608 1613 un
1770 1566 1614 1
1771 1614 1615 1
1772 1561 1616 1
1773 1565 1617 1
1774 1562 1618 1
1775 1571 1619 1
1776 1572 1620 1
1777 1578 1621 1
1778 1585 1622 1
1779 1584 1623 1
1780 1590 1624 1
1781 1587 1625 1
1782 1594 1626 2
1783 1591 1627 2
1784 1613 1628 1
1785 1612 1629 1
1786 1567 1630 1
1787 1567 1631 1
1788 1570 1632 1
1789 1570 1633 1
1790 1575 1634 1
1791 1583 1635 1
1792 1583 1636 1
1793 1584 1637 1
1794 1585 1638 1
1795 1586 1639 1
1796 1586 1640 1
1797 1595 1641 1
1798 1595 1642 1
1799 1596 1643 1
1800 1596 1644 1
1801 1603 1645 1
1802 1603 1646 1
1803 1604 1647 1
1804 1604 1648 1
1805 1605 1649 1
1806 1605 1650 1
1807 1606 1651 1
1808 1607 1652 1
1809 1607 1653 1
1810 1610 1654 1
1811 1611 1655 1
1812 1614 1656 1
1813 1614 1657 1
1814 1615 1658 1
1815 1615 1659 1
1816 1615 1660 1
1817 1616 1661 1
1818 1616 1662 1
1819 1616 1663 1
1820 1617 1664 1
1821 1617 1665 1
1822 1617 1666 1
1823 1618 1667 1
1824 1618 1668 1
1825 1618 1669 1
1826 1619 1670 1
1827 1619 1671 1
1828 1619 1672 1
1829 1620 1673 1
1830 1620 1674 1
1831 1620 1675 1
1832 1621 1676 1
1833 1622 1677 1
1834 1622 1678 1
1835 1622 1679 1
1836 1623 1680 1
1837 1623 1681 1
1838 1623 1682 1
1839 1624 1683 1
1840 1625 1684 1
1841 1628 1685 1
1842 1628 1686 1
1843 1628 1687 1
1844 1629 1688 1
1845 1629 1689 1
1846 1629 1690 1
1847 1693 1692 un
1848 1694 1693 un
1849 1695 1694 un
1850 1696 1695 un
1851 1691 1692 un
1852 1691 1696 un
1853 1698 1697 1
1854 1699 1698 un
1855 1700 1699 1
1856 1694 1697 1
1857 1693 1700 1
1858 1702 1701 un
1859 1703 1702 un
1860 1704 1703 un
1861 1699 1701 un
1862 1698 1704 un
1863 1706 1705 un
1864 1707 1706 un
1865 1708 1707 un
1866 1704 1705 un
1867 1703 1708 un
1868 1710 1709 1
1869 1711 1710 1
1870 1712 1711 un
1871 1707 1709 1
1872 1706 1712 un
1873 1714 1713 1
1874 1715 1714 un
1875 1716 1715 1
1876 1710 1713 1
1877 1709 1716 1
1878 1718 1717 un
1879 1719 1718 un
1880 1720 1719 un
1881 1712 1717 un
1882 1711 1720 un
1883 1722 1721 1
1884 1723 1722 un
1885 1724 1723 1
1886 1719 1721 1
1887 1718 1724 1
1888 1726 1725 1
1889 1727 1726 1
1890 1728 1727 un
1891 1723 1725 1
1892 1722 1728 un
1893 1730 1729 un
1894 1731 1730 un
1895 1732 1731 un
1896 1728 1729 un
1897 1727 1732 un
1898 1734 1733 1
1899 1735 1734 1
1900 1736 1735 1
1901 1732 1733 1
1902 1731 1736 1
1903 1738 1737 1
1904 1739 1738 un
1905 1730 1739 un
1906 1736 1737 1
1907 1741 1740 un
1908 1742 1741 un
1909 1743 1742 un
1910 1739 1740 un
1911 1738 1743 un
1912 1696 1744 1
1913 1744 1745 1
1914 1691 1746 1
1915 1695 1747 1
1916 1692 1748 1
1917 1701 1749 1
1918 1702 1750 1
1919 1708 1751 1
1920 1715 1752 1
1921 1714 1753 1
1922 1720 1754 1
1923 1717 1755 1
1924 1724 1756 2
1925 1721 1757 2
1926 1743 1758 1
1927 1742 1759 1
1928 1697 1760 1
1929 1697 1761 1
1930 1700 1762 1
1931 1700 1763 1
1932 1705 1764 1
1933 1713 1765 1
1934 1713 1766 1
1935 1714 1767 1
1936 1715 1768 1
1937 1716 1769 1
1938 1716 1770 1
1939 1725 1771 1
1940 1725 1772 1
1941 1726 1773 1
1942 1726 1774 1
1943 1733 1775 1
1944 1733 1776 1
1945 1734 1777 1
1946 1734 1778 1
1947 1735 1779 1
1948 1735 1780 1
1949 1736 1781 1
1950 1737 1782 1
1951 1737 1783 1
1952 1740 1784 1
1953 1741 1785 1
1954 1744 1786 1
1955 1744 1787 1
1956 1745 1788 1
1957 1745 1789 1
1958 1745 1790 1
1959 1746 1791 1
1960 1746 1792 1
1961 1746 1793 1
1962 1747 1794 1
1963 1747 1795 1
1964 1747 1796 1
1965 1748 1797 1
1966 1748 1798 1
1967 1748 1799 1
1968 1749 1800 1
1969 1749 1801 1
1970 1749 1802 1
1971 1750 1803 1
1972 1750 1804 1
1973 1750 1805 1
1974 1751 1806 1
1975 1752 1807 1
1976 1752 1808 1
1977 1752 1809 1
1978 1753 1810 1
1979 1753 1811 1
1980 1753 1812 1
1981 1754 1813 1
1982 1755 1814 1
1983 1758 1815 1
1984 1758 1816 1
1985 1758 1817 1
1986 1759 1818 1
1987 1759 1819 1
1988 1759 1820 1
1989 1823 1822 un
1990 1824 1823 un
1991 1825 1824 un
1992 1826 1825 un
1993 1821 1822 un
1994 1821 1826 un
1995 1828 1827 1
1996 1829 1828 un
1997 1830 1829 1
1998 1824 1827 1
1999 1823 1830 1
2000 1832 1831 un
2001 1833 1832 un
2002 1834 1833 un
2003 1829 1831 un
2004 1828 1834 un
2005 1836 1835 un
2006 1837 1836 un
2007 1838 1837 un
2008 1834 1835 un
2009 1833 1838 un
2010 1840 1839 1
2011 1841 1840 1
2012 1842 1841 un
2013 1837 1839 1
2014 1836 1842 un
2015 1844 1843 1
2016 1845 1844 un
2017 1846 1845 1
2018 1840 1843 1
2019 1839 1846 1
2020 1848 1847 un
2021 1849 1848 un
2022 1850 1849 un
2023 1842 1847 un
2024 1841 1850 un
2025 1852 1851 1
2026 1853 1852 un
2027 1854 1853 1
2028 1849 1851 1
2029 1848 1854 1
2030 1856 1855 1
2031 1857 1856 1
2032 1858 1857 un
2033 1853 1855 1
2034 1852 1858 un
2035 1860 1859 un
2036 1861 1860 un
2037 1862 1861 un
2038 1858 1859 un
2039 1857 1862 un
2040 1864 1863 1
2041 1865 1864 1
2042 1866 1865 1
2043 1862 1863 1
2044 1861 1866 1
2045 1868 1867 1
2046 1869 1868 un
2047 1860 1869 un
2048 1866 1867 1
2049 1871 1870 un
2050 1872 1871 un
2051 1873 1872 un
2052 1869 1870 un
2053 1868 1873 un
2054 1826 1874 1
2055 1874 1875 1
2056 1821 1876 1
2057 1825 1877 1
2058 1822 1878 1
2059 1831 1879 1
2060 1832 1880 1
2061 1838 1881 1
2062 1845 1882 1
2063 1844 1883 1
2064 1850 1884 1
2065 1847 1885 1
2066 1854 1886 2
2067 1851 1887 2
2068 1873 1888 1
2069 1872 1889 1
2070 1827 1890 1
2071 1827 1891 1
2072 1830 1892 1
2073 1830 1893 1
2074 1835 1894 1
2075 1843 1895 1
2076 1843 1896 1
2077 1844 1897 1
2078 1845 1898 1
2079 1846 1899 1
2080 1846 1900 1
2081 1855 1901 1
2082 1855 1902 1
2083 1856 1903 1
2084 1856 1904 1
2085 1863 1905 1
2086 1863 1906 1
2087 1864 1907 1
2088 1864 1908 1
2089 1865 1909 1
2090 1865 1910 1
2091 1866 1911 1
2092 1867 1912 1
2093 1867 1913 1
2094 1870 1914 1
2095 1871 1915 1
2096 1874 1916 1
2097 1874 1917 1
2098 1875 1918 1
2099 1875 1919 1
2100 1875 1920 1
2101 1876 1921 1
2102 1876 1922 1
2103 1876 1923 1
2104 1877 1924 1
2105 1877 1925 1
2106 1877 1926 1
2107 1878 1927 1
2108 1878 1928 1
2109 1878 1929 1
2110 1879 1930 1
2111 1879 1931 1
2112 1879 1932 1
2113 1880 1933 1
2114 1880 1934 1
2115 1880 1935 1
2116 1881 1936 1
2117 1882 1937 1
2118 1882 1938 1
2119 1882 1939 1
2120 1883 1940 1
2121 1883 1941 1
2122 1883 1942 1
2123 1884 1943 1
2124 1885 1944 1
2125 1888 1945 1
2126 1888 1946 1
2127 1888 1947 1
2128 1889 1948 1
2129 1889 1949 1
2130 1889 1950 1
2131 1953 1952 un
2132 1954 1953 un
2133 1955 1954 un
2134 1956 1955 un
2135 1951 1952 un
2136 1951 1956 un
2137 1958 1957 1
2138 1959 1958 un
2139 1960 1959 1
2140 1954 1957 1
2141 1953 1960 1
2142 1962 1961 un
2143 1963 1962 un
2144 1964 1963 un
2145 1959 1961 un
2146 1958 1964 un
2147 1966 1965 un
2148 1967 1966 un
2149 1968 1967 un
2150 1964 1965 un
2151 1963 1968 un
2152 1970 1969 1
2153 1971 1970 1
2154 1972 1971 un
2155 1967 1969 1
2156 1966 1972 un
2157 1974 1973 1
2158 1975 1974 un
2159 1976 1975 1
2160 1970 1973 1
2161 1969 1976 1
2162 1978 1977 un
2163 1979 1978 un
2164 1980 1979 un
2165 1972 1977 un
2166 1971 1980 un
2167 1982 1981 1
2168 1983 1982 un
2169 1984 1983 1
2170 1979 1981 1
2171 1978 1984 1
2172 1986 1985 1
2173 1987 1986 1
2174 1988 1987 un
2175 1983 1985 1
2176 1982 1988 un
2177 1990 1989 un
2178 1991 1990 un
2179 1992 1991 un
2180 1988 1989 un
2181 1987 1992 un
2182 1994 1993 1
2183 1995 1994 1
2184 1996 1995 1
2185 1992 1993 1
2186 1991 1996 1
2187 1998 1997 1
2188 1999 1998 un
2189 1990 1999 un
2190 1996 1997 1
2191 2001 2000 un
2192 2002 2001 un
2193 2003 2002 un
2194 1999 2000 un
2195 1998 2003 un
2196 1956 2004 1
2197 2004 2005 1
2198 1951 2006 1
2199 1955 2007 1
2200 1952 2008 1
2201 1961 2009 1
2202 1962 2010 1
2203 1968 2011 1
2204 1975 2012 1
2205 1974 2013 1
2206 1980 2014 1
2207 1977 2015 1
2208 1984 2016 2
2209 1981 2017 2
2210 2003 2018 1
2211 2002 2019 1
2212 1957 2020 1
2213 1957 2021 1
2214 1960 2022 1
2215 1960 2023 1
2216 1965 2024 1
2217 1973 2025 1
2218 1973 2026 1
2219 1974 2027 1
2220 1975 2028 1
2221 1976 2029 1
2222 1976 2030 1
2223 1985 2031 1
2224 1985 2032 1
2225 1986 2033 1
2226 1986 2034 1
2227 1993 2035 1
2228 1993 2036 1
2229 1994 2037 1
2230 1994 2038 1
2231 1995 2039 1
2232 1995 2040 1
2233 1996 2041 1
2234 1997 2042 1
2235 1997 2043 1
2236 2000 2044 1
2237 2001 2045 1
2238 2004 2046 1
2239 2004 2047 1
2240 2005 2048 1
2241 2005 2049 1
2242 2005 2050 1
2243 2006 2051 1
2244 2006 2052 1
2245 2006 2053 1
2246 2007 2054 1
2247 2007 2055 1
2248 2007 2056 1
2249 2008 2057 1
2250 2008 2058 1
2251 2008 2059 1
2252 2009 2060 1
2253 2009 2061 1
2254 2009 2062 1
2255 2010 2063 1
2256 2010 2064 1
2257 2010 2065 1
2258 2011 2066 1
2259 2012 2067 1
2260 2012 2068 1
2261 2012 2069 1
2262 2013 2070 1
2263 2013 2071 1
2264 2013 2072 1
2265 2014 2073 1
2266 2015 2074 1
2267 2018 2075 1
2268 2018 2076 1
2269 2018 2077 1
2270 2019 2078 1
2271 2019 2079 1
2272 2019 2080 1
2273 2083 2082 un
2274 2084 2083 un
2275 2085 2084 un
2276 2086 2085 un
2277 2081 2082 un
2278 2081 2086 un
2279 2088 2087 1
2280 2089 2088 un
2281 2090 2089 1
2282 2084 2087 1
2283 2083 2090 1
2284 2092 2091 un
2285 2093 2092 un
2286 2094 2093 un
2287 2089 2091 un
2288 2088 2094 un
2289 2096 2095 un
2290 2097 2096 un
2291 2098 2097 un
2292 2094 2095 un
2293 2093 2098 un
2294 2100 2099 1
2295 2101 2100 1
2296 2102 2101 un
2297 2097 2099 1
2298 2096 2102 un
2299 2104 2103 1
2300 2105 2104 un
2301 2106 2105 1
2302 2100 2103 1
2303 2099 2106 1
2304 2108 2107 un
2305 2109 2108 un
2306 2110 2109 un
2307 2102 2107 un
2308 2101 2110 un
2309 2112 2111 1
2310 2113 2112 un
2311 2114 2113 1
2312 2109 2111 1
2313 2108 2114 1
2314 2116 2115 1
2315 2117 2116 1
2316 2118 2117 un
2317 2113 2115 1
2318 2112 2118 un
2319 2120 2119 un
2320 2121 2120 un
2321 2122 2121 un
2322 2118 2119 un
2323 2117 2122 un
2324 2124 2123 1
2325 2125 2124 1
2326 2126 2125 1
2327 2122 2123 1
2328 2121 2126 1
2329 2128 2127 1
2330 2129 2128 un
2331 2120 2129 un
2332 2126 2127 1
2333 2131 2130 un
2334 2132 2131 un
2335 2133 2132 un
2336 2129 2130 un
2337 2128 2133 un
2338 2086 2134 1
2339 2134 2135 1
2340 2081 2136 1
2341 2085 2137 1
2342 2082 2138 1
2343 2091 2139 1
2344 2092 2140 1
2345 2098 2141 1
2346 2105 2142 1
2347 2104 2143 1
2348 2110 2144 1
2349 2107 2145 1
2350 2114 2146 2
2351 2111 2147 2
2352 2133 2148 1
2353 2132 2149 1
2354 2087 2150 1
2355 2087 2151 1
2356 2090 2152 1
2357 2090 2153 1
2358 2095 2154 1
2359 2103 2155 1
2360 2103 2156 1
2361 2104 2157 1
2362 2105 2158 1
2363 2106 2159 1
2364 2106 2160 1
2365 2115 2161 1
2366 2115 2162 1
2367 2116 2163 1
2368 2116 2164 1
2369 2123 2165 1
2370 2123 2166 1
2371 2124 2167 1
2372 2124 2168 1
2373 2125 2169 1
2374 2125 2170 1
2375 2126 2171 1
2376 2127 2172 1
2377 2127 2173 1
2378 2130 2174 1
2379 2131 2175 1
2380 2134 2176 1
2381 2134 2177 1
2382 2135 2178 1
2383 2135 2179 1
2384 2135 2180 1
2385 2136 2181 1
2386 2136 2182 1
2387 2136 2183 1
2388 2137 2184 1
2389 2137 2185 1
2390 2137 2186 1
2391 2138 2187 1
2392 2138 2188 1
2393 2138 2189 1
2394 2139 2190 1
2395 2139 2191 1
2396 2139 2192 1
2397 2140 2193 1
2398 2140 2194 1
2399 2140 2195 1
2400 2141 2196 1
2401 2142 2197 1
2402 2142 2198 1
2403 2142 2199 1
2404 2143 2200 1
2405 2143 2201 1
2406 2143 2202 1
2407 2144 2203 1
2408 2145 2204 1
2409 2148 2205 1
2410 2148 2206 1
2411 2148 2207 1
2412 2149 2208 1
2413 2149 2209 1
2414 2149 2210 1
2415 2213 2212 un
2416 2214 2213 un
2417 2215 2214 un
2418 2216 2215 un
2419 2211 2212 un
2420 2211 2216 un
2421 2218 2217 1
2422 2219 2218 un
2423 2220 2219 1
2424 2214 2217 1
2425 2213 2220 1
2426 2222 2221 un
2427 2223 2222 un
2428 2224 2223 un
2429 2219 2221 un
2430 2218 2224 un
2431 2226 2225 un
2432 2227 2226 un
2433 2228 2227 un
2434 2224 2225 un
2435 2223 2228 un
2436 2230 2229 1
2437 2231 2230 1
2438 2232 2231 un
2439 2227 2229 1
2440 2226 2232 un
2441 2234 2233 1
2442 2235 2234 un
2443 2236 2235 1
2444 2230 2233 1
2445 2229 2236 1
2446 2238 2237 un
2447 2239 2238 un
2448 2240 2239 un
2449 2232 2237 un
2450 2231 2240 un
2451 2242 2241 1
2452 2243 2242 un
2453 2244 2243 1
2454 2239 2241 1
2455 2238 2244 1
2456 2246 2245 1
2457 2247 2246 1
2458 2248 2247 un
2459 2243 2245 1
2460 2242 2248 un
2461 2250 2249 un
2462 2251 2250 un
2463 2252 2251 un
2464 2248 2249 un
2465 2247 2252 un
2466 2254 2253 1
2467 2255 2254 1
2468 2256 2255 1
2469 2252 2253 1
2470 2251 2256 1
2471 2258 2257 1
2472 2259 2258 un
2473 2250 2259 un
2474 2256 2257 1
2475 2261 2260 un
2476 2262 2261 un
2477 2263 2262 un
2478 2259 2260 un
2479 2258 2263 un
2480 2216 2264 1
2481 2264 2265 1
2482 2211 2266 1
2483 2215 2267 1
2484 2212 2268 1
2485 2221 2269 1
2486 2222 2270 1
2487 2228 2271 1
2488 2235 2272 1
2489 2234 2273 1
2490 2240 2274 1
2491 2237 2275 1
2492 2244 2276 2
2493 2241 2277 2
2494 2263 2278 1
2495 2262 2279 1
2496 2217 2280 1
2497 2217 2281 1
2498 2220 2282 1
2499 2220 2283 1
2500 2225 2284 1
2501 2233 2285 1
2502 2233 2286 1
2503 2234 2287 1
2504 2235 2288 1
2505 2236 2289 1
2506 2236 2290 1
2507 2245 2291 1
2508 2245 2292 1
2509 2246 2293 1
2510 2246 2294 1
2511 2253 2295 1
2512 2253 2296 1
2513 2254 2297 1
2514 2254 2298 1
2515 2255 2299 1
2516 2255 2300 1
2517 2256 2301 1
2518 2257 2302 1
2519 2257 2303 1
2520 2260 2304 1
2521 2261 2305 1
2522 2264 2306 1
2523 2264 2307 1
2524 2265 2308 1
2525 2265 2309 1
2526 2265 2310 1
2527 2266 2311 1
2528 2266 2312 1
2529 2266 2313 1
2530 2267 2314 1
2531 2267 2315 1
2532 2267 2316 1
2533 2268 2317 1
2534 2268 2318 1
2535 2268 2319 1
2536 2269 2320 1
2537 2269 2321 1
2538 2269 2322 1
2539 2270 2323 1
2540 2270 2324 1
2541 2270 2325 1
2542 2271 2326 1
2543 2272 2327 1
2544 2272 2328 1
2545 2272 2329 1
2546 2273 2330 1
2547 2273 2331 1
2548 2273 2332 1
2549 2274 2333 1
2550 2275 2334 1
2551 2278 2335 1
2552 2278 2336 1
2553 2278 2337 1
2554 2279 2338 1
2555 2279 2339 1
2556 2279 2340 1
2557 2343 2342 un
2558 2344 2343 un
2559 2345 2344 un
2560 2346 2345 un
2561 2341 2342 un
2562 2341 2346 un
2563 2348 2347 1
2564 2349 2348 un
2565 2350 2349 1
2566 2344 2347 1
2567 2343 2350 1
2568 2352 2351 un
2569 2353 2352 un
2570 2354 2353 un
2571 2349 2351 un
2572 2348 2354 un
2573 2356 2355 un
2574 2357 2356 un
2575 2358 2357 un
2576 2354 2355 un
2577 2353 2358 un
2578 2360 2359 1
2579 2361 2360 1
2580 2362 2361 un
2581 2357 2359 1
2582 2356 2362 un
2583 2364 2363 1
2584 2365 2364 un
2585 2366 2365 1
2586 2360 2363 1
2587 2359 2366 1
2588 2368 2367 un
2589 2369 2368 un
2590 2370 2369 un
2591 2362 2367 un
2592 2361 2370 un
2593 2372 2371 1
2594 2373 2372 un
2595 2374 2373 1
2596 2369 2371 1
2597 2368 2374 1
2598 2376 2375 1
2599 2377 2376 1
2600 2378 2377 un
2601 2373 2375 1
2602 2372 2378 un
2603 2380 2379 un
2604 2381 2380 un
2605 2382 2381 un
2606 2378 2379 un
2607 2377 2382 un
2608 2384 2383 1
2609 2385 2384 1
2610 2386 2385 1
2611 2382 2383 1
2612 2381 2386 1
2613 2388 2387 1
2614 2389 2388 un
2615 2380 2389 un
2616 2386 2387 1
2617 2391 2390 un
2618 2392 2391 un
2619 2393 2392 un
2620 2389 2390 un
2621 2388 2393 un
2622 2346 2394 1
2623 2394 2395 1
2624 2341 2396 1
2625 2345 2397 1
2626 2342 2398 1
2627 2351 2399 1
2628 2352 2400 1
2629 2358 2401 1
2630 2365 2402 1
2631 2364 2403 1
2632 2370 2404 1
2633 2367 2405 1
2634 2374 2406 2
2635 2371 2407 2
2636 2393 2408 1
2637 2392 2409 1
2638 2347 2410 1
2639 2347 2411 1
2640 2350 2412 1
2641 2350 2413 1
2642 2355 2414 1
2643 2363 2415 1
2644 2363 2416 1
2645 2364 2417 1
2646 2365 2418 1
2647 2366 2419 1
2648 2366 2420 1
2649 2375 2421 1
2650 2375 2422 1
2651 2376 2423 1
2652 2376 2424 1
2653 2383 2425 1
2654 2383 2426 1
2655 2384 2427 1
2656 2384 2428 1
2657 2385 2429 1
2658 2385 2430 1
2659 2386 2431 1
2660 2387 2432 1
2661 2387 2433 1
2662 2390 2434 1
2663 2391 2435 1
2664 2394 2436 1
2665 2394 2437 1
2666 2395 2438 1
2667 2395 2439 1
2668 2395 2440 1
2669 2396 2441 1
2670 2396 2442 1
2671 2396 2443 1
2672 2397 2444 1
2673 2397 2445 1
2674 2397 2446 1
2675 2398 2447 1
2676 2398 2448 1
2677 2398 2449 1
2678 2399 2450 1
2679 2399 2451 1
2680 2399 2452 1
2681 2400 2453 1
2682 2400 2454 1
2683 2400 2455 1
2684 2401 2456 1
2685 2402 2457 1
2686 2402 2458 1
2687 2402 2459 1
2688 2403 2460 1
2689 2403 2461 1
2690 2403 2462 1
2691 2404 2463 1
2692 2405 2464 1
2693 2408 2465 1
2694 2408 2466 1
2695 2408 2467 1
2696 2409 2468 1
2697 2409 2469 1
2698 2409 2470 1
2699 2473 2472 un
2700 2474 2473 un
2701 2475 2474 un
2702 2476 2475 un
2703 2471 2472 un
2704 2471 2476 un
2705 2478 2477 1
2706 2479 2478 un
2707 2480 2479 1
2708 2474 2477 1
2709 2473 2480 1
2710 2482 2481 un
2711 2483 2482 un
2712 2484 2483 un
2713 2479 2481 un
2714 2478 2484 un
2715 2486 2485 un
2716 2487 2486 un
2717 2488 2487 un
2718 2484 2485 un
2719 2483 2488 un
2720 2490 2489 1
2721 2491 2490 1
2722 2492 2491 un
2723 2487 2489 1
2724 2486 2492 un
2725 2494 2493 1
2726 2495 2494 un
2727 2496 2495 1
2728 2490 2493 1
2729 2489 2496 1
2730 2498 2497 un
2731 2499 2498 un
2732 2500 2499 un
2733 2492 2497 un
2734 2491 2500 un
2735 2502 2501 1
2736 2503 2502 un
2737 2504 2503 1
2738 2499 2501 1
2739 2498 2504 1
2740 2506 2505 1
2741 2507 2506 1
2742 2508 2507 un
2743 2503 2505 1
2744 2502 2508 un
2745 2510 2509 un
2746 2511 2510 un
2747 2512 2511 un
2748 2508 2509 un
2749 2507 2512 un
2750 2514 2513 1
2751 2515 2514 1
2752 2516 2515 1
2753 2512 2513 1
2754 2511 2516 1
2755 2518 2517 1
2756 2519 2518 un
2757 2510 2519 un
2758 2516 2517 1
2759 2521 2520 un
2760 2522 2521 un
2761 2523 2522 un
2762 2519 2520 un
2763 2518 2523 un
2764 2476 2524 1
2765 2524 2525 1
2766 2471 2526 1
2767 2475 2527 1
2768 2472 2528 1
2769 2481 2529 1
2770 2482 2530 1
2771 2488 2531 1
2772 2495 2532 1
2773 2494 2533 1
2774 2500 2534 1
2775 2497 2535 1
2776 2504 2536 2
2777 2501 2537 2
2778 2523 2538 1
2779 2522 2539 1
2780 2477 2540 1
2781 2477 2541 1
2782 2480 2542 1
2783 2480 2543 1
2784 2485 2544 1
2785 2493 2545 1
2786 2493 2546 1
2787 2494 2547 1
2788 2495 2548 1
2789 2496 2549 1
2790 2496 2550 1
2791 2505 2551 1
2792 2505 2552 1
2793 2506 2553 1
2794 2506 2554 1
2795 2513 2555 1
2796 2513 2556 1
2797 2514 2557 1
2798 2514 2558 1
2799 2515 2559 1
2800 2515 2560 1
2801 2516 2561 1
2802 2517 2562 1
2803 2517 2563 1
2804 2520 2564 1
2805 2521 2565 1
2806 2524 2566 1
2807 2524 2567 1
2808 2525 2568 1
2809 2525 2569 1
2810 2525 2570 1
2811 2526 2571 1
2812 2526 2572 1
2813 2526 2573 1
2814 2527 2574 1
2815 2527 2575 1
2816 2527 2576 1
2817 2528 2577 1
2818 2528 2578 1
2819 2528 2579 1
2820 2529 2580 1
2821 2529 2581 1
2822 2529 2582 1
2823 2530 2583 1
2824 2530 2584 1
2825 2530 2585 1
2826 2531 2586 1
2827 2532 2587 1
2828 2532 2588 1
2829 2532 2589 1
2830 2533 2590 1
2831 2533 2591 1
2832 2533 2592 1
2833 2534 2593 1
2834 2535 2594 1
2835 2538 2595 1
2836 2538 2596 1
2837 2538 2597 1
2838 2539 2598 1
2839 2539 2599 1
2840 2539 2600 1
2841 2603 2602 un
2842 2604 2603 un
2843 2605 2604 un
2844 2606 2605 un
2845 2601 2602 un
2846 2601 2606 un
2847 2608 2607 1
2848 2609 2608 un
2849 2610 2609 1
2850 2604 2607 1
2851 2603 2610 1
2852 2612 2611 un
2853 2613 2612 un
2854 2614 2613 un
2855 2609 2611 un
2856 2608 2614 un
2857 2616 2615 un
2858 2617 2616 un
2859 2618 2617 un
2860 2614 2615 un
2861 2613 2618 un
2862 2620 2619 1
2863 2621 2620 1
2864 2622 2621 un
2865 2617 2619 1
2866 2616 2622 un
2867 2624 2623 1
2868 2625 2624 un
2869 2626 2625 1
2870 2620 2623 1
2871 2619 2626 1
2872 2628 2627 un
2873 2629 2628 un
2874 2630 2629 un
2875 2622 2627 un
2876 2621 2630 un
2877 2632 2631 1
2878 2633 2632 un
2879 2634 2633 1
2880 2629 2631 1
2881 2628 2634 1
2882 2636 2635 1
2883 2637 2636 1
2884 2638 2637 un
2885 2633 2635 1
2886 2632 2638 un
2887 2640 2639 un
2888 2641 2640 un
2889 2642 2641 un
2890 2638 2639 un
2891 2637 2642 un
2892 2644 2643 1
2893 2645 2644 1
2894 2646 2645 1
2895 2642 2643 1
2896 2641 2646 1
2897 2648 2647 1
2898 2649 2648 un
2899 2640 2649 un
2900 2646 2647 1
2901 2651 2650 un
2902 2652 2651 un
2903 2653 2652 un
2904 2649 2650 un
2905 2648 2653 un
2906 2606 2654 1
2907 2654 2655 1
2908 2601 2656 1
2909 2605 2657 1
2910 2602 2658 1
2911 2611 2659 1
2912 2612 2660 1
2913 2618 2661 1
2914 2625 2662 1
2915 2624 2663 1
2916 2630 2664 1
2917 2627 2665 1
2918 2634 2666 2
2919 2631 2667 2
2920 2653 2668 1
2921 2652 2669 1
2922 2607 2670 1
2923 2607 2671 1
2924 2610 2672 1
2925 2610 2673 1
2926 2615 2674 1
2927 2623 2675 1
2928 2623 2676 1
2929 2624 2677 1
2930 2625 2678 1
2931 2626 2679 1
2932 2626 2680 1
2933 2635 2681 1
2934 2635 2682 1
2935 2636 2683 1
2936 2636 2684 1
2937 2643 2685 1
2938 2643 2686 1
2939 2644 2687 1
2940 2644 2688 1
2941 2645 2689 1
2942 2645 2690 1
2943 2646 2691 1
2944 2647 2692 1
2945 2647 2693 1
2946 2650 2694 1
2947 2651 2695 1
2948 2654 2696 1
2949 2654 2697 1
2950 2655 2698 1
2951 2655 2699 1
2952 2655 2700 1
2953 2656 2701 1
2954 2656 2702 1
2955 2656 2703 1
2956 2657 2704 1
2957 2657 2705 1
2958 2657 2706 1
2959 2658 2707 1
2960 2658 2708 1
2961 2658 2709 1
2962 2659 2710 1
2963 2659 2711 1
2964 2659 2712 1
2965 2660 2713 1
2966 2660 2714 1
2967 2660 2715 1
2968 2661 2716 1
2969 2662 2717 1
2970 2662 2718 1
2971 2662 2719 1
2972 2663 2720 1
2973 2663 2721 1
2974 2663 2722 1
2975 2664 2723 1
2976 2665 2724 1
2977 2668 2725 1
2978 2668 2726 1
2979 2668 2727 1
2980 2669 2728 1
2981 2669 2729 1
2982 2669 2730 1
2983 2733 2732 un
2984 2734 2733 un
2985 2735 2734 un
2986 2736 2735 un
2987 2731 2732 un
2988 2731 2736 un
2989 2738 2737 1
2990 2739 2738 un
2991 2740 2739 1
2992 2734 2737 1
2993 2733 2740 1
2994 2742 2741 un
2995 2743 2742 un
2996 2744 2743 un
2997 2739 2741 un
2998 2738 2744 un
2999 2746 2745 un
3000 2747 2746 un
3001 2748 2747 un
3002 2744 2745 un
3003 2743 2748 un
3004 2750 2749 1
3005 2751 2750 1
3006 2752 2751 un
3007 2747 2749 1
3008 2746 2752 un
3009 2754 2753 1
3010 2755 2754 un
3011 2756 2755 1
3012 2750 2753 1
3013 2749 2756 1
3014 2758 2757 un
3015 2759 2758 un
3016 2760 2759 un
3017 2752 2757 un
3018 2751 2760 un
3019 2762 2761 1
3020 2763 2762 un
3021 2764 2763 1
3022 2759 2761 1
3023 2758 2764 1
3024 2766 2765 1
3025 2767 2766 1
3026 2768 2767 un
3027 2763 2765 1
3028 2762 2768 un
3029 2770 2769 un
3030 2771 2770 un
3031 2772 2771 un
3032 2768 2769 un
3033 2767 2772 un
3034 2774 2773 1
3035 2775 2774 1
3036 2776 2775 1
3037 2772 2773 1
3038 2771 2776 1
3039 2778 2777 1
3040 2779 2778 un
3041 2770 2779 un
3042 2776 2777 1
3043 2781 2780 un
3044 2782 2781 un
3045 2783 2782 un
3046 2779 2780 un
3047 2778 2783 un
3048 2736 2784 1
3049 2784 2785 1
3050 2731 2786 1
3051 2735 2787 1
3052 2732 2788 1
3053 2741 2789 1
3054 2742 2790 1
3055 2748 2791 1
3056 2755 2792 1
3057 2754 2793 1
3058 2760 2794 1
3059 2757 2795 1
3060 2764 2796 2
3061 2761 2797 2
3062 2783 2798 1
3063 2782 2799 1
3064 2737 2800 1
3065 2737 2801 1
3066 2740 2802 1
3067 2740 2803 1
3068 2745 2804 1
3069 2753 2805 1
3070 2753 2806 1
3071 2754 2807 1
3072 2755 2808 1
3073 2756 2809 1
3074 2756 2810 1
3075 2765 2811 1
3076 2765 2812 1
3077 2766 2813 1
3078 2766 2814 1
3079 2773 2815 1
3080 2773 2816 1
3081 2774 2817 1
3082 2774 2818 1
3083 2775 2819 1
3084 2775 2820 1
3085 2776 2821 1
3086 2777 2822 1
3087 2777 2823 1
3088 2780 2824 1
3089 2781 2825 1
3090 2784 2826 1
3091 2784 2827 1
3092 2785 2828 1
3093 2785 2829 1
3094 2785 2830 1
3095 2786 2831 1
3096 2786 2832 1
3097 2786 2833 1
3098 2787 2834 1
3099 2787 2835 1
3100 2787 2836 1
3101 2788 2837 1
3102 2788 2838 1
3103 2788 2839 1
3104 2789 2840 1
3105 2789 2841 1
3106 2789 2842 1
3107 2790 2843 1
3108 2790 2844 1
3109 2790 2845 1
3110 2791 2846 1
3111 2792 2847 1
3112 2792 2848 1
3113 2792 2849 1
3114 2793 2850 1
3115 2793 2851 1
3116 2793 2852 1
3117 2794 2853 1
3118 2795 2854 1
3119 2798 2855 1
3120 2798 2856 1
3121 2798 2857 1
3122 2799 2858 1
3123 2799 2859 1
3124 2799 2860 1
3125 2863 2862 un
3126 2864 2863 un
3127 2865 2864 un
3128 2866 2865 un
3129 2861 2862 un
3130 2861 2866 un
3131 2868 2867 1
3132 2869 2868 un
3133 2870 2869 1
3134 2864 2867 1
3135 2863 2870 1
3136 2872 2871 un
3137 2873 2872 un
3138 2874 2873 un
3139 2869 2871 un
3140 2868 2874 un
3141 2876 2875 un
3142 2877 2876 un
3143 2878 2877 un
3144 2874 2875 un
3145 2873 2878 un
3146 2880 2879 1
3147 2881 2880 1
3148 2882 2881 un
3149 2877 2879 1
3150 2876 2882 un
3151 2884 2883 1
3152 2885 2884 un
3153 2886 2885 1
3154 2880 2883 1
3155 2879 2886 1
3156 2888 2887 un
3157 2889 2888 un
3158 2890 2889 un
3159 2882 2887 un
3160 2881 2890 un
3161 2892 2891 1
3162 2893 2892 un
3163 2894 2893 1
3164 2889 2891 1
3165 2888 2894 1
3166 2896 2895 1
3167 2897 2896 1
3168 2898 2897 un
3169 2893 2895 1
3170 2892 2898 un
3171 2900 2899 un
3172 2901 2900 un
3173 2902 2901 un
3174 2898 2899 un
3175 2897 2902 un
3176 2904 2903 1
3177 2905 2904 1
3178 2906 2905 1
3179 2902 2903 1
3180 2901 2906 1
3181 2908 2907 1
3182 2909 2908 un
3183 2900 2909 un
3184 2906 2907 1
3185 2911 2910 un
3186 2912 2911 un
3187 2913 2912 un
3188 2909 2910 un
3189 2908 2913 un
3190 2866 2914 1
3191 2914 2915 1
3192 2861 2916 1
3193 2865 2917 1
3194 2862 2918 1
3195 2871 2919 1
3196 2872 2920 1
3197 2878 2921 1
3198 2885 2922 1
3199 2884 2923 1
3200 2890 2924 1
3201 2887 2925 1
3202 2894 2926 2
3203 2891 2927 2
3204 2913 2928 1
3205 2912 2929 1
3206 2867 2930 1
3207 2867 2931 1
3208 2870 2932 1
3209 2870 2933 1
3210 2875 2934 1
3211 2883 2935 1
3212 2883 2936 1
3213 2884 2937 1
3214 2885 2938 1
3215 2886 2939 1
3216 2886 2940 1
3217 2895 2941 1
3218 2895 2942 1
3219 2896 2943 1
3220 2896 2944 1
3221 2903 2945 1
3222 2903 2946 1
3223 2904 2947 1
3224 2904 2948 1
3225 2905 2949 1
3226 2905 2950 1
3227 2906 2951 1
3228 2907 2952 1
3229 2907 2953 1
3230 2910 2954 1
3231 2911 2955 1
3232 2914 2956 1
3233 2914 2957 1
3234 2915 2958 1
3235 2915 2959 1
3236 2915 2960 1
3237 2916 2961 1
3238 2916 2962 1
3239 2916 2963 1
3240 2917 2964 1
3241 2917 2965 1
3242 2917 2966 1
3243 2918 2967 1
3244 2918 2968 1
3245 2918 2969 1
3246 2919 2970 1
3247 2919 2971 1
3248 2919 2972 1
3249 2920 2973 1
3250 2920 2974 1
3251 2920 2975 1
3252 2921 2976 1
3253 2922 2977 1
3254 2922 2978 1
3255 2922 2979 1
3256 2923 2980 1
3257 2923 2981 1
3258 2923 2982 1
3259 2924 2983 1
3260 2925 2984 1
3261 2928 2985 1
3262 2928 2986 1
3263 2928 2987 1
3264 2929 2988 1
3265 2929 2989 1
3266 2929 2990 1
3267 2993 2992 un
3268 2994 2993 un
3269 2995 2994 un
3270 2996 2995 un
3271 2991 2992 un
3272 2991 2996 un
3273 2998 2997 1
3274 2999 2998 un
3275 3000 2999 1
3276 2994 2997 1
3277 2993 3000 1
3278 3002 3001 un
3279 3003 3002 un
3280 3004 3003 un
3281 2999 3001 un
3282 2998 3004 un
3283 3006 3005 un
3284 3007 3006 un
3285 3008 3007 un
3286 3004 3005 un
3287 3003 3008 un
3288 3010 3009 1
3289 3011 3010 1
3290 3012 3011 un
3291 3007 3009 1
3292 3006 3012 un
3293 3014 3013 1
3294 3015 3014 un
3295 3016 3015 1
3296 3010 3013 1
3297 3009 3016 1
3298 3018 3017 un
3299 3019 3018 un
3300 3020 3019 un
3301 3012 3017 un
3302 3011 3020 un
3303 3022 3021 1
3304 3023 3022 un
3305 3024 3023 1
3306 3019 3021 1
3307 3018 3024 1
3308 3026 3025 1
3309 3027 3026 1
3310 3028 3027 un
3311 3023 3025 1
3312 3022 3028 un
3313 3030 3029 un
3314 3031 3030 un
3315 3032 3031 un
3316 3028 3029 un
3317 3027 3032 un
3318 3034 3033 1
3319 3035 3034 1
3320 3036 3035 1
3321 3032 3033 1
3322 3031 3036 1
3323 3038 3037 1
3324 3039 3038 un
3325 3030 3039 un
3326 3036 3037 1
3327 3041 3040 un
3328 3042 3041 un
3329 3043 3042 un
3330 3039 3040 un
3331 3038 3043 un
3332 2996 3044 1
3333 3044 3045 1
3334 2991 3046 1
3335 2995 3047 1
3336 2992 3048 1
3337 3001 3049 1
3338 3002 3050 1
3339 3008 3051 1
3340 3015 3052 1
3341 3014 3053 1
3342 3020 3054 1
3343 3017 3055 1
3344 3024 3056 2
3345 3021 3057 2
3346 3043 3058 1
3347 3042 3059 1
3348 2997 3060 1
3349 2997 3061 1
3350 3000 3062 1
3351 3000 3063 1
3352 3005 3064 1
3353 3013 3065 1
3354 3013 3066 1
3355 3014 3067 1
3356 3015 3068 1
3357 3016 3069 1
3358 3016 3070 1
3359 3025 3071 1
3360 3025 3072 1
3361 3026 3073 1
3362 3026 3074 1
3363 3033 3075 1
3364 3033 3076 1
3365 3034 3077 1
3366 3034 3078 1
3367 3035 3079 1
3368 3035 3080 1
3369 3036 3081 1
3370 3037 3082 1
3371 3037 3083 1
3372 3040 3084 1
3373 3041 3085 1
3374 3044 3086 1
3375 3044 3087 1
3376 3045 3088 1
3377 3045 3089 1
3378 3045 3090 1
3379 3046 3091 1
3380 3046 3092 1
3381 3046 3093 1
3382 3047 3094 1
3383 3047 3095 1
3384 3047 3096 1
3385 3048 3097 1
3386 3048 3098 1
3387 3048 3099 1
3388 3049 3100 1
3389 3049 3101 1
3390 3049 3102 1
3391 3050 3103 1
3392 3050 3104 1
3393 3050 3105 1
3394 3051 3106 1
3395 3052 3107 1
3396 3052 3108 1
3397 3052 3109 1
3398 3053 3110 1
3399 3053 3111 1
3400 3053 3112 1
3401 3054 3113 1
3402 3055 3114 1
3403 3058 3115 1
3404 3058 3116 1
3405 3058 3117 1
3406 3059 3118 1
3407 3059 3119 1
3408 3059 3120 1
3409 3123 3122 un
3410 3124 3123 un
3411 3125 3124 un
3412 3126 3125 un
3413 3121 3122 un
3414 3121 3126 un
3415 3128 3127 1
3416 3129 3128 un
3417 3130 3129 1
3418 3124 3127 1
3419 3123 3130 1
3420 3132 3131 un
3421 3133 3132 un
3422 3134 3133 un
3423 3129 3131 un
3424 3128 3134 un
3425 3136 3135 un
3426 3137 3136 un
3427 3138 3137 un
3428 3134 3135 un
3429 3133 3138 un
3430 3140 3139 1
3431 3141 3140 1
3432 3142 3141 un
3433 3137 3139 1
3434 3136 3142 un
3435 3144 3143 1
3436 3145 3144 un
3437 3146 3145 1
3438 3140 3143 1
3439 3139 3146 1
3440 3148 3147 un
3441 3149 3148 un
3442 3150 3149 un
3443 3142 3147 un
3444 3141 3150 un
3445 3152 3151 1
3446 3153 3152 un
3447 3154 3153 1
3448 3149 3151 1
3449 3148 3154 1
3450 3156 3155 1
3451 3157 3156 1
3452 3158 3157 un
3453 3153 3155 1
3454 3152 3158 un
3455 3160 3159 un
3456 3161 3160 un
3457 3162 3161 un
3458 3158 3159 un
3459 3157 3162 un
3460 3164 3163 1
3461 3165 3164 1
3462 3166 3165 1
3463 3162 3163 1
3464 3161 3166 1
3465 3168 3167 1
3466 3169 3168 un
3467 3160 3169 un
3468 3166 3167 1
3469 3171 3170 un
3470 3172 3171 un
3471 3173 3172 un
3472 3169 3170 un
3473 3168 3173 un
3474 3126 3174 1
3475 3174 3175 1
3476 3121 3176 1
3477 3125 3177 1
3478 3122 3178 1
3479 3131 3179 1
3480 3132 3180 1
3481 3138 3181 1
3482 3145 3182 1
3483 3144 3183 1
3484 3150 3184 1
3485 3147 3185 1
3486 3154 3186 2
3487 3151 3187 2
3488 3173 3188 1
3489 3172 3189 1
3490 3127 3190 1
3491 3127 3191 1
3492 3130 3192 1
3493 3130 3193 1
3494 3135 3194 1
3495 3143 3195 1
3496 3143 3196 1
3497 3144 3197 1
3498 3145 3198 1
3499 3146 3199 1
3500 3146 3200 1
3501 3155 3201 1
3502 3155 3202 1
3503 3156 3203 1
3504 3156 3204 1
3505 3163 3205 1
3506 3163 3206 1
3507 3164 3207 1
3508 3164 3208 1
3509 3165 3209 1
3510 3165 3210 1
3511 3166 3211 1
3512 3167 3212 1
3513 3167 3213 1
3514 3170 3214 1
3515 3171 3215 1
3516 3174 3216 1
3517 3174 3217 1
3518 3175 3218 1
3519 3175 3219 1
3520 3175 3220 1
3521 3176 3221 1
3522 3176 3222 1
3523 3176 3223 1
3524 3177 3224 1
3525 3177 3225 1
3526 3177 3226 1
3527 3178 3227 1
3528 3178 3228 1
3529 3178 3229 1
3530 3179 3230 1
3531 3179 3231 1
3532 3179 3232 1
3533 3180 3233 1
3534 3180 3234 1
3535 3180 3235 1
3536 3181 3236 1
3537 3182 3237 1
3538 3182 3238 1
3539 3182 3239 1
3540 3183 3240 1
3541 3183 3241 1
3542 3183 3242 1
3543 3184 3243 1
3544 3185 3244 1
3545 3188 3245 1
3546 3188 3246 1
3547 3188 3247 1
3548 3189 3248 1
3549 3189 3249 1
3550 3189 3250 1
3551 3253 3252 un
3552 3254 3253 un
3553 3255 3254 un
3554 3256 3255 un
3555 3251 3252 un
3556 3251 3256 un
3557 3258 3257 1
3558 3259 3258 un
3559 3260 3259 1
3560 3254 3257 1
3561 3253 3260 1
3562 3262 3261 un
3563 3263 3262 un
3564 3264 3263 un
3565 3259 3261 un
3566 3258 3264 un
3567 3266 3265 un
3568 3267 3266 un
3569 3268 3267 un
3570 3264 3265 un
3571 3263 3268 un
3572 3270 3269 1
3573 3271 3270 1
3574 3272 3271 un
3575 3267 3269 1
3576 3266 3272 un
3577 3274 3273 1
3578 3275 3274 un
3579 3276 3275 1
3580 3270 3273 1
3581 3269 3276 1
3582 3278 3277 un
3583 3279 3278 un
3584 3280 3279 un
3585 3272 3277 un
3586 3271 3280 un
3587 3282 3281 1
3588 3283 3282 un
3589 3284 3283 1
3590 3279 3281 1
3591 3278 3284 1
3592 3286 3285 1
3593 3287 3286 1
3594 3288 3287 un
3595 3283 3285 1
3596 3282 3288 un
3597 3290 3289 un
3598 3291 3290 un
3599 3292 3291 un
3600 3288 3289 un
3601 3287 3292 un
3602 3294 3293 1
3603 3295 3294 1
3604 3296 3295 1
3605 3292 3293 1
3606 3291 3296 1
3607 3298 3297 1
3608 3299 3298 un
3609 3290 3299 un
3610 3296 3297 1
3611 3301 3300 un
3612 3302 3301 un
3613 3303 3302 un
3614 3299 3300 un
3615 3298 3303 un
3616 3256 3304 1
3617 3304 3305 1
3618 3251 3306 1
3619 3255 3307 1
3620 3252 3308 1
3621 3261 3309 1
3622 3262 3310 1
3623 3268 3311 1
3624 3275 3312 1
3625 3274 3313 1
3626 3280 3314 1
3627 3277 3315 1
3628 3284 3316 2
3629 3281 3317 2
3630 3303 3318 1
3631 3302 3319 1
3632 3257 3320 1
3633 3257 3321 1
3634 3260 3322 1
3635 3260 3323 1
3636 3265 3324 1
3637 3273 3325 1
3638 3273 3326 1
3639 3274 3327 1
3640 3275 3328 1
3641 3276 3329 1
3642 3276 3330 1
3643 3285 3331 1
3644 3285 3332 1
3645 3286 3333 1
3646 3286 3334 1
3647 3293 3335 1
3648 3293 3336 1
3649 3294 3337 1
3650 3294 3338 1
3651 3295 3339 1
3652 3295 3340 1
3653 3296 3341 1
3654 3297 3342 1
3655 3297 3343 1
3656 3300 3344 1
3657 3301 3345 1
3658 3304 3346 1
3659 3304 3347 1
3660 3305 3348 1
3661 3305 3349 1
3662 3305 3350 1
3663 3306 3351 1
3664 3306 3352 1
3665 3306 3353 1
3666 3307 3354 1
3667 3307 3355 1
3668 3307 3356 1
3669 3308 3357 1
3670 3308 3358 1
3671 3308 3359 1
3672 3309 3360 1
3673 3309 3361 1
3674 3309 3362 1
3675 3310 3363 1
3676 3310 3364 1
3677 3310 3365 1
3678 3311 3366 1
3679 3312 3367 1
3680 3312 3368 1
3681 3312 3369 1
3682 3313 3370 1
3683 3313 3371 1
3684 3313 3372 1
3685 3314 3373 1
3686 3315 3374 1
3687 3318 3375 1
3688 3318 3376 1
3689 3318 3377 1
3690 3319 3378 1
3691 3319 3379 1
3692 3319 3380 1
3693 3383 3382 un
3694 3384 3383 un
3695 3385 3384 un
3696 3386 3385 un
3697 3381 3382 un
3698 3381 3386 un
3699 3388 3387 1
3700 3389 3388 un
3701 3390 3389 1
3702 3384 3387 1
3703 3383 3390 1
3704 3392 3391 un
3705 3393 3392 un
3706 3394 3393 un
3707 3389 3391 un
3708 3388 3394 un
3709 3396 3395 un
3710 3397 3396 un
3711 3398 3397 un
3712 3394 3395 un
3713 3393 3398 un
3714 3400 3399 1
3715 3401 3400 1
3716 3402 3401 un
3717 3397 3399 1
3718 3396 3402 un
3719 3404 3403 1
3720 3405 3404 un
3721 3406 3405 1
3722 3400 3403 1
3723 3399 3406 1
3724 3408 3407 un
3725 3409 3408 un
3726 3410 3409 un
3727 3402 3407 un
3728 3401 3410 un
3729 3412 3411 1
3730 3413 3412 un
3731 3414 3413 1
3732 3409 3411 1
3733 3408 3414 1
3734 3416 3415 1
3735 3417 3416 1
3736 3418 3417 un
3737 3413 3415 1
3738 3412 3418 un
3739 3420 3419 un
3740 3421 3420 un
3741 3422 3421 un
3742 3418 3419 un
3743 3417 3422 un
3744 3424 3423 1
3745 3425 3424 1
3746 3426 3425 1
3747 3422 3423 1
3748 3421 3426 1
3749 3428 3427 1
3750 3429 3428 un
3751 3420 3429 un
3752 3426 3427 1
3753 3431 3430 un
3754 3432 3431 un
3755 3433 3432 un
3756 3429 3430 un
3757 3428 3433 un
3758 3386 3434 1
3759 3434 3435 1
3760 3381 3436 1
3761 3385 3437 1
3762 3382 3438 1
3763 3391 3439 1
3764 3392 3440 1
3765 3398 3441 1
3766 3405 3442 1
3767 3404 3443 1
3768 3410 3444 1
3769 3407 3445 1
3770 3414 3446 2
3771 3411 3447 2
3772 3433 3448 1
3773 3432 3449 1
3774 3387 3450 1
3775 3387 3451 1
3776 3390 3452 1
3777 3390 3453 1
3778 3395 3454 1
3779 3403 3455 1
3780 3403 3456 1
3781 3404 3457 1
3782 3405 3458 1
3783 3406 3459 1
3784 3406 3460 1
3785 3415 3461 1
3786 3415 3462 1
3787 3416 3463 1
3788 3416 3464 1
3789 3423 3465 1
3790 3423 3466 1
3791 3424 3467 1
3792 3424 3468 1
3793 3425 3469 1
3794 3425 3470 1
3795 3426 3471 1
3796 3427 3472 1
3797 3427 3473 1
3798 3430 3474 1
3799 3431 3475 1
3800 3434 3476 1
3801 3434 3477 1
3802 3435 3478 1
3803 3435 3479 1
3804 3435 3480 1
3805 3436 3481 1
3806 3436 3482 1
3807 3436 3483 1
3808 3437 3484 1
3809 3437 3485 1
3810 3437 3486 1
3811 3438 3487 1
3812 3438 3488 1
3813 3438 3489 1
3814 3439 3490 1
3815 3439 3491 1
3816 3439 3492 1
3817 3440 3493 1
3818 3440 3494 1
3819 3440 3495 1
3820 3441 3496 1
3821 3442 3497 1
3822 3442 3498 1
3823 3442 3499 1
3824 3443 3500 1
3825 3443 3501 1
3826 3443 3502 1
3827 3444 3503 1
3828 3445 3504 1
3829 3448 3505 1
3830 3448 3506 1
3831 3448 3507 1
3832 3449 3508 1
3833 3449 3509 1
3834 3449 3510 1
3835 3513 3512 un
3836 3514 3513 un
3837 3515 3514 un
3838 3516 3515 un
3839 3511 3512 un
3840 3511 3516 un
3841 3518 3517 1
3842 3519 3518 un
3843 3520 3519 1
3844 3514 3517 1
3845 3513 3520 1
3846 3522 3521 un
3847 3523 3522 un
3848 3524 3523 un
3849 3519 3521 un
3850 3518 3524 un
3851 3526 3525 un
3852 3527 3526 un
3853 3528 3527 un
3854 3524 3525 un
3855 3523 3528 un
3856 3530 3529 1
3857 3531 3530 1
3858 3532 3531 un
3859 3527 3529 1
3860 3526 3532 un
3861 3534 3533 1
3862 3535 3534 un
3863 3536 3535 1
3864 3530 3533 1
3865 3529 3536 1
3866 3538 3537 un
3867 3539 3538 un
3868 3540 3539 un
3869 3532 3537 un
3870 3531 3540 un
3871 3542 3541 1
3872 3543 3542 un
3873 3544 3543 1
3874 3539 3541 1
3875 3538 3544 1
3876 3546 3545 1
3877 3547 3546 1
3878 3548 3547 un
3879 3543 3545 1
3880 3542 3548 un
3881 3550 3549 un
3882 3551 3550 un
3883 3552 3551 un
3884 3548 3549 un
3885 3547 3552 un
3886 3554 3553 1
3887 3555 3554 1
3888 3556 3555 1
3889 3552 3553 1
3890 3551 3556 1
3891 3558 3557 1
3892 3559 3558 un
3893 3550 3559 un
3894 3556 3557 1
3895 3561 3560 un
3896 3562 3561 un
3897 3563 3562 un
3898 3559 3560 un
3899 3558 3563 un
3900 3516 3564 1
3901 3564 3565 1
3902 3511 3566 1
3903 3515 3567 1
3904 3512 3568 1
3905 3521 3569 1
3906 3522 3570 1
3907 3528 3571 1
3908 3535 3572 1
3909 3534 3573 1
3910 3540 3574 1
3911 3537 3575 1
3912 3544 3576 2
3913 3541 3577 2
3914 3563 3578 1
3915 3562 3579 1
3916 3517 3580 1
3917 3517 3581 1
3918 3520 3582 1
3919 3520 3583 1
3920 3525 3584 1
3921 3533 3585 1
3922 3533 3586 1
3923 3534 3587 1
3924 3535 3588 1
3925 3536 3589 1
3926 3536 3590 1
3927 3545 3591 1
3928 3545 3592 1
3929 3546 3593 1
3930 3546 3594 1
3931 3553 3595 1
3932 3553 3596 1
3933 3554 3597 1
3934 3554 3598 1
3935 3555 3599 1
3936 3555 3600 1
3937 3556 3601 1
3938 3557 3602 1
3939 3557 3603 1
3940 3560 3604 1
3941 3561 3605 1
3942 3564 3606 1
3943 3564 3607 1
3944 3565 3608 1
3945 3565 3609 1
3946 3565 3610 1
3947 3566 3611 1
3948 3566 3612 1
3949 3566 3613 1
3950 3567 3614 1
3951 3567 3615 1
3952 3567 3616 1
3953 3568 3617 1
3954 3568 3618 1
3955 3568 3619 1
3956 3569 3620 1
3957 3569 3621 1
3958 3569 3622 1
3959 3570 3623 1
3960 3570 3624 1
3961 3570 3625 1
3962 3571 3626 1
3963 3572 3627 1
3964 3572 3628 1
3965 3572 3629 1
3966 3573 3630 1
3967 3573 3631 1
3968 3573 3632 1
3969 3574 3633 1
3970 3575 3634 1
3971 3578 3635 1
3972 3578 3636 1
3973 3578 3637 1
3974 3579 3638 1
3975 3579 3639 1
3976 3579 3640 1
3977 3643 3642 un
3978 3644 3643 un
3979 3645 3644 un
3980 3646 3645 un
3981 3641 3642 un
3982 3641 3646 un
3983 3648 3647 1
3984 3649 3648 un
3985 3650 3649 1
3986 3644 3647 1
3987 3643 3650 1
3988 3652 3651 un
3989 3653 3652 un
3990 3654 3653 un
3991 3649 3651 un
3992 3648 3654 un
3993 3656 3655 un
3994 3657 3656 un
3995 3658 3657 un
3996 3654 3655 un
3997 3653 3658 un
3998 3660 3659 1
3999 3661 3660 1
4000 3662 3661 un
4001 3657 3659 1
4002 3656 3662 un
4003 3664 3663 1
4004 3665 3664 un
4005 3666 3665 1
4006 3660 3663 1
4007 3659 3666 1
4008 3668 3667 un
4009 3669 3668 un
4010 3670 3669 un
4011 3662 3667 un
4012 3661 3670 un
4013 3672 3671 1
4014 3673 3672 un
4015 3674 3673 1
4016 3669 3671 1
4017 3668 3674 1
4018 3676 3675 1
4019 3677 3676 1
4020 3678 3677 un
4021 3673 3675 1
4022 3672 3678 un
4023 3680 3679 un
4024 3681 3680 un
4025 3682 3681 un
4026 3678 3679 un
4027 3677 3682 un
4028 3684 3683 1
4029 3685 3684 1
4030 3686 3685 1
4031 3682 3683 1
4032 3681 3686 1
4033 3688 3687 1
4034 3689 3688 un
4035 3680 3689 un
4036 3686 3687 1
4037 3691 3690 un
4038 3692 3691 un
4039 3693 3692 un
4040 3689 3690 un
4041 3688 3693 un
4042 3646 3694 1
4043 3694 3695 1
4044 3641 3696 1
4045 3645 3697 1
4046 3642 3698 1
4047 3651 3699 1
4048 3652 3700 1
4049 3658 3701 1
4050 3665 3702 1
4051 3664 3703 1
4052 3670 3704 1
4053 3667 3705 1
4054 3674 3706 2
4055 3671 3707 2
4056 3693 3708 1
4057 3692 3709 1
4058 3647 3710 1
4059 3647 3711 1
4060 3650 3712 1
4061 3650 3713 1
4062 3655 3714 1
4063 3663 3715 1
4064 3663 3716 1
4065 3664 3717 1
4066 3665 3718 1
4067 3666 3719 1
4068 3666 3720 1
4069 3675 3721 1
4070 3675 3722 1
4071 3676 3723 1
4072 3676 3724 1
4073 3683 3725 1
4074 3683 3726 1
4075 3684 3727 1
4076 3684 3728 1
4077 3685 3729 1
4078 3685 3730 1
4079 3686 3731 1
4080 3687 3732 1
4081 3687 3733 1
4082 3690 3734 1
4083 3691 3735 1
4084 3694 3736 1
4085 3694 3737 1
4086 3695 3738 1
4087 3695 3739 1
4088 3695 3740 1
4089 3696 3741 1
4090 3696 3742 1
4091 3696 3743 1
4092 3697 3744 1
4093 3697 3745 1
4094 3697 3746 1
4095 3698 3747 1
4096 3698 3748 1
4097 3698 3749 1
4098 3699 3750 1
4099 3699 3751 1
4100 3699 3752 1
4101 3700 3753 1
4102 3700 3754 1
4103 3700 3755 1
4104 3701 3756 1
4105 3702 3757 1
4106 3702 3758 1
4107 3702 3759 1
4108 3703 3760 1
4109 3703 3761 1
4110 3703 3762 1
4111 3704 3763 1
4112 3705 3764 1
4113 3708 3765 1
4114 3708 3766 1
4115 3708 3767 1
4116 3709 3768 1
4117 3709 3769 1
4118 3709 3770 1
4119 3773 3772 un
4120 3774 3773 un
4121 3775 3774 un
4122 3776 3775 un
4123 3771 3772 un
4124 3771 3776 un
4125 3778 3777 1
4126 3779 3778 un
4127 3780 3779 1
4128 3774 3777 1
4129 3773 3780 1
4130 3782 3781 un
4131 3783 3782 un
4132 3784 3783 un
4133 3779 3781 un
4134 3778 3784 un
4135 3786 3785 un
4136 3787 3786 un
4137 3788 3787 un
4138 3784 3785 un
4139 3783 3788 un
4140 3790 3789 1
4141 3791 3790 1
4142 3792 3791 un
4143 3787 3789 1
4144 3786 3792 un
4145 3794 3793 1
4146 3795 3794 un
4147 3796 3795 1
4148 3790 3793 1
4149 3789 3796 1
4150 3798 3797 un
4151 3799 3798 un
4152 3800 3799 un
4153 3792 3797 un
4154 3791 3800 un
4155 3802 3801 1
4156 3803 3802 un
4157 3804 3803 1
4158 3799 3801 1
4159 3798 3804 1
4160 3806 3805 1
4161 3807 3806 1
4162 3808 3807 un
4163 3803 3805 1
4164 3802 3808 un
4165 3810 3809 un
4166 3811 3810 un
4167 3812 3811 un
4168 3808 3809 un
4169 3807 3812 un
4170 3814 3813 1
4171 3815 3814 1
4172 3816 3815 1
4173 3812 3813 1
4174 3811 3816 1
4175 3818 3817 1
4176 3819 3818 un
4177 3810 3819 un
4178 3816 3817 1
4179 3821 3820 un
4180 3822 3821 un
4181 3823 3822 un
4182 3819 3820 un
4183 3818 3823 un
4184 3776 3824 1
4185 3824 3825 1
4186 3771 3826 1
4187 3775 3827 1
4188 3772 3828 1
4189 3781 3829 1
4190 3782 3830 1
4191 3788 3831 1
4192 3795 3832 1
4193 3794 3833 1
4194 3800 3834 1
4195 3797 3835 1
4196 3804 3836 2
4197 3801 3837 2
4198 3823 3838 1
4199 3822 3839 1
4200 3777 3840 1
4201 3777 3841 1
4202 3780 3842 1
4203 3780 3843 1
4204 3785 3844 1
4205 3793 3845 1
4206 3793 3846 1
4207 3794 3847 1
4208 3795 3848 1
4209 3796 3849 1
4210 3796 3850 1
4211 3805 3851 1
4212 3805 3852 1
4213 3806 3853 1
4214 3806 3854 1
4215 3813 3855 1
4216 3813 3856 1
4217 3814 3857 1
4218 3814 3858 1
4219 3815 3859 1
4220 3815 3860 1
4221 3816 3861 1
4222 3817 3862 1
4223 3817 3863 1
4224 3820 3864 1
4225 3821 3865 1
4226 3824 3866 1
4227 3824 3867 1
4228 3825 3868 1
4229 3825 3869 1
4230 3825 3870 1
4231 3826 3871 1
4232 3826 3872 1
4233 3826 3873 1
4234 3827 3874 1
4235 3827 3875 1
4236 3827 3876 1
4237 3828 3877 1
4238 3828 3878 1
4239 3828 3879 1
4240 3829 3880 1
4241 3829 3881 1
4242 3829 3882 1
4243 3830 3883 1
4244 3830 3884 1
4245 3830 3885 1
4246 3831 3886 1
4247 3832 3887 1
4248 3832 3888 1
4249 3832 3889 1
4250 3833 3890 1
4251 3833 3891 1
4252 3833 3892 1
4253 3834 3893 1
4254 3835 3894 1
4255 3838 3895 1
4256 3838 3896 1
4257 3838 3897 1
4258 3839 3898 1
4259 3839 3899 1
4260 3839 3900 1
4261 3903 3902 un
4262 3904 3903 un
4263 3905 3904 un
4264 3906 3905 un
4265 3901 3902 un
4266 3901 3906 un
4267 3908 3907 1
4268 3909 3908 un
4269 3910 3909 1
4270 3904 3907 1
4271 3903 3910 1
4272 3912 3911 un
4273 3913 3912 un
4274 3914 3913 un
4275 3909 3911 un
4276 3908 3914 un
4277 3916 3915 un
4278 3917 3916 un
4279 3918 3917 un
4280 3914 3915 un
4281 3913 3918 un
4282 3920 3919 1
4283 3921 3920 1
4284 3922 3921 un
4285 3917 3919 1
4286 3916 3922 un
4287 3924 3923 1
4288 3925 3924 un
4289 3926 3925 1
4290 3920 3923 1
4291 3919 3926 1
4292 3928 3927 un
4293 3929 3928 un
4294 3930 3929 un
4295 3922 3927 un
4296 3921 3930 un
4297 3932 3931 1
4298 3933 3932 un
4299 3934 3933 1
4300 3929 3931 1
4301 3928 3934 1
4302 3936 3935 1
4303 3937 3936 1
4304 3938 3937 un
4305 3933 3935 1
4306 3932 3938 un
4307 3940 3939 un
4308 3941 3940 un
4309 3942 3941 un
4310 3938 3939 un
4311 3937 3942 un
4312 3944 3943 1
4313 3945 3944 1
4314 3946 3945 1
4315 3942 3943 1
4316 3941 3946 1
4317 3948 3947 1
4318 3949 3948 un
4319 3940 3949 un
4320 3946 3947 1
4321 3951 3950 un
4322 3952 3951 un
4323 3953 3952 un
4324 3949 3950 un
4325 3948 3953 un
4326 3906 3954 1
4327 3954 3955 1
4328 3901 3956 1
4329 3905 3957 1
4330 3902 3958 1
4331 3911 3959 1
4332 3912 3960 1
4333 3918 3961 1
4334 3925 3962 1
4335 3924 3963 1
4336 3930 3964 1
4337 3927 3965 1
4338 3934 3966 2
4339 3931 3967 2
4340 3953 3968 1
4341 3952 3969 1
4342 3907 3970 1
4343 3907 3971 1
4344 3910 3972 1
4345 3910 3973 1
4346 3915 3974 1
4347 3923 3975 1
4348 3923 3976 1
4349 3924 3977 1
4350 3925 3978 1
4351 3926 3979 1
4352 3926 3980 1
4353 3935 3981 1
4354 3935 3982 1
4355 3936 3983 1
4356 3936 3984 1
4357 3943 3985 1
4358 3943 3986 1
4359 3944 3987 1
4360 3944 3988 1
4361 3945 3989 1
4362 3945 3990 1
4363 3946 3991 1
4364 3947 3992 1
4365 3947 3993 1
4366 3950 3994 1
4367 3951 3995 1
4368 3954 3996 1
4369 3954 3997 1
4370 3955 3998 1
4371 3955 3999 1
4372 3955 4000 1
4373 3956 4001 1
4374 3956 4002 1
4375 3956 4003 1
4376 3957 4004 1
4377 3957 4005 1
4378 3957 4006 1
4379 3958 4007 1
4380 3958 4008 1
4381 3958 4009 1
4382 3959 4010 1
4383 3959 4011 1
4384 3959 4012 1
4385 3960 4013 1
4386 3960 4014 1
4387 3960 4015 1
4388 3961 4016 1
4389 3962 4017 1
4390 3962 4018 1
4391 3962 4019 1
4392 3963 4020 1
4393 3963 4021 1
4394 3963 4022 1
4395 3964 4023 1
4396 3965 4024 1
4397 3968 4025 1
4398 3968 4026 1
4399 3968 4027 1
4400 3969 4028 1
4401 3969 4029 1
4402 3969 4030 1
4403 4033 4032 un
4404 4034 4033 un
4405 4035 4034 un
4406 4036 4035 un
4407 4031 4032 un
4408 4031 4036 un
4409 4038 4037 1
4410 4039 4038 un
4411 4040 4039 1
4412 4034 4037 1
4413 4033 4040 1
4414 4042 4041 un
4415 4043 4042 un
4416 4044 4043 un
4417 4039 4041 un
4418 4038 4044 un
4419 4046 4045 un
4420 4047 4046 un
4421 4048 4047 un
4422 4044 4045 un
4423 4043 4048 un
4424 4050 4049 1
4425 4051 4050 1
4426 4052 4051 un
4427 4047 4049 1
4428 4046 4052 un
4429 4054 4053 1
4430 4055 4054 un
4431 4056 4055 1
4432 4050 4053 1
4433 4049 4056 1
4434 4058 4057 un
4435 4059 4058 un
4436 4060 4059 un
4437 4052 4057 un
4438 4051 4060 un
4439 4062 4061 1
4440 4063 4062 un
4441 4064 4063 1
4442 4059 4061 1
4443 4058 4064 1
4444 4066 4065 1
4445 4067 4066 1
4446 4068 4067 un
4447 4063 4065 1
4448 4062 4068 un
4449 4070 4069 un
4450 4071 4070 un
4451 4072 4071 un
4452 4068 4069 un
4453 4067 4072 un
4454 4074 4073 1
4455 4075 4074 1
4456 4076 4075 1
4457 4072 4073 1
4458 4071 4076 1
4459 4078 4077 1
4460 4079 4078 un
4461 4070 4079 un
4462 4076 4077 1
4463 4081 4080 un
4464 4082 4081 un
4465 4083 4082 un
4466 4079 4080 un
4467 4078 4083 un
4468 4036 4084 1
4469 4084 4085 1
4470 4031 4086 1
4471 4035 4087 1
4472 4032 4088 1
4473 4041 4089 1
4474 4042 4090 1
4475 4048 4091 1
4476 4055 4092 1
4477 4054 4093 1
4478 4060 4094 1
4479 4057 4095 1
4480 4064 4096 2
4481 4061 4097 2
4482 4083 4098 1
4483 4082 4099 1
4484 4037 4100 1
4485 4037 4101 1
4486 4040 4102 1
4487 4040 4103 1
4488 4045 4104 1
4489 4053 4105 1
4490 4053 4106 1
4491 4054 4107 1
4492 4055 4108 1
4493 4056 4109 1
4494 4056 4110 1
4495 4065 4111 1
4496 4065 4112 1
4497 4066 4113 1
4498 4066 4114 1
4499 4073 4115 1
4500 4073 4116 1
4501 4074 4117 1
4502 4074 4118 1
4503 4075 4119 1
4504 4075 4120 1
4505 4076 4121 1
4506 4077 4122 1
4507 4077 4123 1
4508 4080 4124 1
4509 4081 4125 1
4510 4084 4126 1
4511 4084 4127 1
4512 4085 4128 1
4513 4085 4129 1
4514 4085 4130 1
4515 4086 4131 1
4516 4086 4132 1
4517 4086 4133 1
4518 4087 4134 1
4519 4087 4135 1
4520 4087 4136 1
4521 4088 4137 1
4522 4088 4138 1
4523 4088 4139 1
4524 4089 4140 1
4525 4089 4141 1
4526 4089 4142 1
4527 4090 4143 1
4528 4090 4144 1
4529 4090 4145 1
4530 4091 4146 1
4531 4092 4147 1
4532 4092 4148 1
4533 4092 4149 1
4534 4093 4150 1
4535 4093 4151 1
4536 4093 4152 1
4537 4094 4153 1
4538 4095 4154 1
4539 4098 4155 1
4540 4098 4156 1
4541 4098 4157 1
4542 4099 4158 1
4543 4099 4159 1
4544 4099 4160 1
4545 4163 4162 un
4546 4164 4163 un
4547 4165 4164 un
4548 4166 4165 un
4549 4161 4162 un
4550 4161 4166 un
4551 4168 4167 1
4552 4169 4168 un
4553 4170 4169 1
4554 4164 4167 1
4555 4163 4170 1
4556 4172 4171 un
4557 4173 4172 un
4558 4174 4173 un
4559 4169 4171 un
4560 4168 4174 un
4561 4176 4175 un
4562 4177 4176 un
4563 4178 4177 un
4564 4174 4175 un
4565 4173 4178 un
4566 4180 4179 1
4567 4181 4180 1
4568 4182 4181 un
4569 4177 4179 1
4570 4176 4182 un
4571 4184 4183 1
4572 4185 4184 un
4573 4186 4185 1
4574 4180 4183 1
4575 4179 4186 1
4576 4188 4187 un
4577 4189 4188 un
4578 4190 4189 un
4579 4182 4187 un
4580 4181 4190 un
4581 4192 4191 1
4582 4193 4192 un
4583 4194 4193 1
4584 4189 4191 1
4585 4188 4194 1
4586 4196 4195 1
4587 4197 4196 1
4588 4198 4197 un
4589 4193 4195 1
4590 4192 4198 un
4591 4200 4199 un
4592 4201 4200 un
4593 4202 4201 un
4594 4198 4199 un
4595 4197 4202 un
4596 4204 4203 1
4597 4205 4204 1
4598 4206 4205 1
4599 4202 4203 1
4600 4201 4206 1
4601 4208 4207 1
4602 4209 4208 un
4603 4200 4209 un
4604 4206 4207 1
4605 4211 4210 un
4606 4212 4211 un
4607 4213 4212 un
4608 4209 4210 un
4609 4208 4213 un
4610 4166 4214 1
4611 4214 4215 1
4612 4161 4216 1
4613 4165 4217 1
4614 4162 4218 1
4615 4171 4219 1
4616 4172 4220 1
4617 4178 4221 1
4618 4185 4222 1
4619 4184 4223 1
4620 4190 4224 1
4621 4187 4225 1
4622 4194 4226 2
4623 4191 4227 2
4624 4213 4228 1
4625 4212 4229 1
4626 4167 4230 1
4627 4167 4231 1
4628 4170 4232 1
4629 4170 4233 1
4630 4175 4234 1
4631 4183 4235 1
4632 4183 4236 1
4633 4184 4237 1
4634 4185 4238 1
4635 4186 4239 1
4636 4186 4240 1
4637 4195 4241 1
4638 4195 4242 1
4639 4196 4243 1
4640 4196 4244 1
4641 4203 4245 1
4642 4203 4246 1
4643 4204 4247 1
4644 4204 4248 1
4645 4205 4249 1
4646 4205 4250 1
4647 4206 4251 1
4648 4207 4252 1
4649 4207 4253 1
4650 4210 4254 1
4651 4211 4255 1
4652 4214 4256 1
4653 4214 4257 1
4654 4215 4258 1
4655 4215 4259 1
4656 4215 4260 1
4657 4216 4261 1
4658 4216 4262 1
4659 4216 4263 1
4660 4217 4264 1
4661 4217 4265 1
4662 4217 4266 1
4663 4218 4267 1
4664 4218 4268 1
4665 4218 4269 1
4666 4219 4270 1
4667 4219 4271 1
4668 4219 4272 1
4669 4220 4273 1
4670 4220 4274 1
4671 4220 4275 1
4672 4221 4276 1
4673 4222 4277 1
4674 4222 4278 1
4675 4222 4279 1
4676 4223 4280 1
4677 4223 4281 1
4678 4223 4282 1
4679 4224 4283 1
4680 4225 4284 1
4681 4228 4285 1
4682 4228 4286 1
4683 4228 4287 1
4684 4229 4288 1
4685 4229 4289 1
4686 4229 4290 1
4687 4293 4292 un
4688 4294 4293 un
4689 4295 4294 un
4690 4296 4295 un
4691 4291 4292 un
4692 4291 4296 un
4693 4298 4297 1
4694 4299 4298 un
4695 4300 4299 1
4696 4294 4297 1
4697 4293 4300 1
4698 4302 4301 un
4699 4303 4302 un
4700 4304 4303 un
4701 4299 4301 un
4702 4298 4304 un
4703 4306 4305 un
4704 4307 4306 un
4705 4308 4307 un
4706 4304 4305 un
4707 4303 4308 un
4708 4310 4309 1
4709 4311 4310 1
4710 4312 4311 un
4711 4307 4309 1
4712 4306 4312 un
4713 4314 4313 1
4714 4315 4314 un
4715 4316 4315 1
4716 4310 4313 1
4717 4309 4316 1
4718 4318 4317 un
4719 4319 4318 un
4720 4320 4319 un
4721 4312 4317 un
4722 4311 4320 un
4723 4322 4321 1
4724 4323 4322 un
4725 4324 4323 1
4726 4319 4321 1
4727 4318 4324 1
4728 4326 4325 1
4729 4327 4326 1
4730 4328 4327 un
4731 4323 4325 1
4732 4322 4328 un
4733 4330 4329 un
4734 4331 4330 un
4735 4332 4331 un
4736 4328 4329 un
4737 4327 4332 un
4738 4334 4333 1
4739 4335 4334 1
4740 4336 4335 1
4741 4332 4333 1
4742 4331 4336 1
4743 4338 4337 1
4744 4339 4338 un
4745 4330 4339 un
4746 4336 4337 1
4747 4341 4340 un
4748 4342 4341 un
4749 4343 4342 un
4750 4339 4340 un
4751 4338 4343 un
4752 4296 4344 1
4753 4344 4345 1
4754 4291 4346 1
4755 4295 4347 1
4756 4292 4348 1
4757 4301 4349 1
4758 4302 4350 1
4759 4308 4351 1
4760 4315 4352 1
4761 4314 4353 1
4762 4320 4354 1
4763 4317 4355 1
4764 4324 4356 2
4765 4321 4357 2
4766 4343 4358 1
4767 4342 4359 1
4768 4297 4360 1
4769 4297 4361 1
4770 4300 4362 1
4771 4300 4363 1
4772 4305 4364 1
4773 4313 4365 1
4774 4313 4366 1
4775 4314 4367 1
4776 4315 4368 1
4777 4316 4369 1
4778 4316 4370 1
4779 4325 4371 1
4780 4325 4372 1
4781 4326 4373 1
4782 4326 4374 1
4783 4333 4375 1
4784 4333 4376 1
4785 4334 4377 1
4786 4334 4378 1
4787 4335 4379 1
4788 4335 4380 1
4789 4336 4381 1
4790 4337 4382 1
4791 4337 4383 1
4792 4340 4384 1
4793 4341 4385 1
4794 4344 4386 1
4795 4344 4387 1
4796 4345 4388 1
4797 4345 4389 1
4798 4345 4390 1
4799 4346 4391 1
4800 4346 4392 1
4801 4346 4393 1
4802 4347 4394 1
4803 4347 4395 1
4804 4347 4396 1
4805 4348 4397 1
4806 4348 4398 1
4807 4348 4399 1
4808 4349 4400 1
4809 4349 4401 1
4810 4349 4402 1
4811 4350 4403 1
4812 4350 4404 1
4813 4350 4405 1
4814 4351 4406 1
4815 4352 4407 1
4816 4352 4408 1
4817 4352 4409 1
4818 4353 4410 1
4819 4353 4411 1
4820 4353 4412 1
4821 4354 4413 1
4822 4355 4414 1
4823 4358 4415 1
4824 4358 4416 1
4825 4358 4417 1
4826 4359 4418 1
4827 4359 4419 1
4828 4359 4420 1
4829 4423 4422 un
4830 4424 4423 un
4831 4425 4424 un
4832 4426 4425 un
4833 4421 4422 un
4834 4421 4426 un
4835 4428 4427 1
4836 4429 4428 un
4837 4430 4429 1
4838 4424 4427 1
4839 4423 4430 1
4840 4432 4431 un
4841 4433 4432 un
4842 4434 4433 un
4843 4429 4431 un
4844 4428 4434 un
4845 4436 4435 un
4846 4437 4436 un
4847 4438 4437 un
4848 4434 4435 un
4849 4433 4438 un
4850 4440 4439 1
4851 4441 4440 1
4852 4442 4441 un
4853 4437 4439 1
4854 4436 4442 un
4855 4444 4443 1
4856 4445 4444 un
4857 4446 4445 1
4858 4440 4443 1
4859 4439 4446 1
4860 4448 4447 un
4861 4449 4448 un
4862 4450 4449 un
4863 4442 4447 un
4864 4441 4450 un
4865 4452 4451 1
4866 4453 4452 un
4867 4454 4453 1
4868 4449 4451 1
4869 4448 4454 1
4870 4456 4455 1
4871 4457 4456 1
4872 4458 4457 un
4873 4453 4455 1
4874 4452 4458 un
4875 4460 4459 un
4876 4461 4460 un
4877 4462 4461 un
4878 4458 4459 un
4879 4457 4462 un
4880 4464 4463 1
4881 4465 4464 1
4882 4466 4465 1
4883 4462 4463 1
4884 4461 4466 1
4885 4468 4467 1
4886 4469 4468 un
4887 4460 4469 un
4888 4466 4467 1
4889 4471 4470 un
4890 4472 4471 un
4891 4473 4472 un
4892 4469 4470 un
4893 4468 4473 un
4894 4426 4474 1
4895 4474 4475 1
4896 4421 4476 1
4897 4425 4477 1
4898 4422 4478 1
4899 4431 4479 1
4900 4432 4480 1
4901 4438 4481 1
4902 4445 4482 1
4903 4444 4483 1
4904 4450 4484 1
4905 4447 4485 1
4906 4454 4486 2
4907 4451 4487 2
4908 4473 4488 1
4909 4472 4489 1
4910 4427 4490 1
4911 4427 4491 1
4912 4430 4492 1
4913 4430 4493 1
4914 4435 4494 1
4915 4443 4495 1
4916 4443 4496 1
4917 4444 4497 1
4918 4445 4498 1
4919 4446 4499 1
4920 4446 4500 1
4921 4455 4501 1
4922 4455 4502 1
4923 4456 4503 1
4924 4456 4504 1
4925 4463 4505 1
4926 4463 4506 1
4927 4464 4507 1
4928 4464 4508 1
4929 4465 4509 1
4930 4465 4510 1
4931 4466 4511 1
4932 4467 4512 1
4933 4467 4513 1
4934 4470 4514 1
4935 4471 4515 1
4936 4474 4516 1
4937 4474 4517 1
4938 4475 4518 1
4939 4475 4519 1
4940 4475 4520 1
4941 4476 4521 1
4942 4476 4522 1
4943 4476 4523 1
4944 4477 4524 1
4945 4477 4525 1
4946 4477 4526 1
4947 4478 4527 1
4948 4478 4528 1
4949 4478 4529 1
4950 4479 4530 1
4951 4479 4531 1
4952 4479 4532 1
4953 4480 4533 1
4954 4480 4534 1
4955 4480 4535 1
4956 4481 4536 1
4957 4482 4537 1
4958 4482 4538 1
4959 4482 4539 1
4960 4483 4540 1
4961 4483 4541 1
4962 4483 4542 1
4963 4484 4543 1
4964 4485 4544 1
4965 4488 4545 1
4966 4488 4546 1
4967 4488 4547 1
4968 4489 4548 1
4969 4489 4549 1
4970 4489 4550 1
4971 4553 4552 un
4972 4554 4553 un
4973 4555 4554 un
4974 4556 4555 un
4975 4551 4552 un
4976 4551 4556 un
4977 4558 4557 1
4978 4559 4558 un
4979 4560 4559 1
4980 4554 4557 1
4981 4553 4560 1
4982 4562 4561 un
4983 4563 4562 un
4984 4564 4563 un
4985 4559 4561 un
4986 4558 4564 un
4987 4566 4565 un
4988 4567 4566 un
4989 4568 4567 un
4990 4564 4565 un
4991 4563 4568 un
4992 4570 4569 1
4993 4571 4570 1
4994 4572 4571 un
4995 4567 4569 1
4996 4566 4572 un
4997 4574 4573 1
4998 4575 4574 un
4999 4576 4575 1
5000 4570 4573 1
5001 4569 4576 1
5002 4578 4577 un
5003 4579 4578 un
5004 4580 4579 un
5005 4572 4577 un
5006 4571 4580 un
5007 4582 4581 1
5008 4583 4582 un
5009 4584 4583 1
5010 4579 4581 1
5011 4578 4584 1
5012 4586 4585 1
5013 4587 4586 1
5014 4588 4587 un
5015 4583 4585 1
5016 4582 4588 un
5017 4590 4589 un
5018 4591 4590 un
5019 4592 4591 un
5020 4588 4589 un
5021 4587 4592 un
5022 4594 4593 1
5023 4595 4594 1
5024 4596 4595 1
5025 4592 4593 1
5026 4591 4596 1
5027 4598 4597 1
5028 4599 4598 un
5029 4590 4599 un
5030 4596 4597 1
5031 4601 4600 un
5032 4602 4601 un
5033 4603 4602 un
5034 4599 4600 un
5035 4598 4603 un
5036 4556 4604 1
5037 4604 4605 1
5038 4551 4606 1
5039 4555 4607 1
5040 4552 4608 1
5041 4561 4609 1
5042 4562 4610 1
5043 4568 4611 1
5044 4575 4612 1
5045 4574 4613 1
5046 4580 4614 1
5047 4577 4615 1
5048 4584 4616 2
5049 4581 4617 2
5050 4603 4618 1
5051 4602 4619 1
5052 4557 4620 1
5053 4557 4621 1
5054 4560 4622 1
5055 4560 4623 1
5056 4565 4624 1
5057 4573 4625 1
5058 4573 4626 1
5059 4574 4627 1
5060 4575 4628 1
5061 4576 4629 1
5062 4576 4630 1
5063 4585 4631 1
5064 4585 4632 1
5065 4586 4633 1
5066 4586 4634 1
5067 4593 4635 1
5068 4593 4636 1
5069 4594 4637 1
5070 4594 4638 1
5071 4595 4639 1
5072 4595 4640 1
5073 4596 4641 1
5074 4597 4642 1
5075 4597 4643 1
5076 4600 4644 1
5077 4601 4645 1
5078 4604 4646 1
5079 4604 4647 1
5080 4605 4648 1
5081 4605 4649 1
5082 4605 4650 1
5083 4606 4651 1
5084 4606 4652 1
5085 4606 4653 1
5086 4607 4654 1
5087 4607 4655 1
5088 4607 4656 1
5089 4608 4657 1
5090 4608 4658 1
5091 4608 4659 1
5092 4609 4660 1
5093 4609 4661 1
5094 4609 4662 1
5095 4610 4663 1
5096 4610 4664 1
5097 4610 4665 1
5098 4611 4666 1
5099 4612 4667 1
5100 4612 4668 1
5101 4612 4669 1
5102 4613 4670 1
5103 4613 4671 1
5104 4613 4672 1
5105 4614 4673 1
5106 4615 4674 1
5107 4618 4675 1
5108 4618 4676 1
5109 4618 4677 1
5110 4619 4678 1
5111 4619 4679 1
5112 4619 4680 1
5113 4683 4682 un
5114 4684 4683 un
5115 4685 4684 un
5116 4686 4685 un
5117 4681 4682 un
5118 4681 4686 un
5119 4688 4687 1
5120 4689 4688 un
5121 4690 4689 1
5122 4684 4687 1
5123 4683 4690 1
5124 4692 4691 un
5125 4693 4692 un
5126 4694 4693 un
5127 4689 4691 un
5128 4688 4694 un
5129 4696 4695 un
5130 4697 4696 un
5131 4698 4697 un
5132 4694 4695 un
5133 4693 4698 un
5134 4700 4699 1
5135 4701 4700 1
5136 4702 4701 un
5137 4697 4699 1
5138 4696 4702 un
5139 4704 4703 1
5140 4705 4704 un
5141 4706 4705 1
5142 4700 4703 1
5143 4699 4706 1
5144 4708 4707 un
5145 4709 4708 un
5146 4710 4709 un
5147 4702 4707 un
5148 4701 4710 un
5149 4712 4711 1
5150 4713 4712 un
5151 4714 4713 1
5152 4709 4711 1
5153 4708 4714 1
5154 4716 4715 1
5155 4717 4716 1
5156 4718 4717 un
5157 4713 4715 1
5158 4712 4718 un
5159 4720 4719 un
5160 4721 4720 un
5161 4722 4721 un
5162 4718 4719 un
5163 4717 4722 un
5164 4724 4723 1
5165 4725 4724 1
5166 4726 4725 1
5167 4722 4723 1
5168 4721 4726 1
5169 4728 4727 1
5170 4729 4728 un
5171 4720 4729 un
5172 4726 4727 1
5173 4731 4730 un
5174 4732 4731 un
5175 4733 4732 un
5176 4729 4730 un
5177 4728 4733 un
5178 4686 4734 1
5179 4734 4735 1
5180 4681 4736 1
5181 4685 4737 1
5182 4682 4738 1
5183 4691 4739 1
5184 4692 4740 1
5185 4698 4741 1
5186 4705 4742 1
5187 4704 4743 1
5188 4710 4744 1
5189 4707 4745 1
5190 4714 4746 2
5191 4711 4747 2
5192 4733 4748 1
5193 4732 4749 1
5194 4687 4750 1
5195 4687 4751 1
5196 4690 4752 1
5197 4690 4753 1
5198 4695 4754 1
5199 4703 4755 1
5200 4703 4756 1
5201 4704 4757 1
5202 4705 4758 1
5203 4706 4759 1
5204 4706 4760 1
5205 4715 4761 1
5206 4715 4762 1
5207 4716 4763 1
5208 4716 4764 1
5209 4723 4765 1
5210 4723 4766 1
5211 4724 4767 1
5212 4724 4768 1
5213 4725 4769 1
5214 4725 4770 1
5215 4726 4771 1
5216 4727 4772 1
5217 4727 4773 1
5218 4730 4774 1
5219 4731 4775 1
5220 4734 4776 1
5221 4734 4777 1
5222 4735 4778 1
5223 4735 4779 1
5224 4735 4780 1
5225 4736 4781 1
5226 4736 4782 1
5227 4736 4783 1
5228 4737 4784 1
5229 4737 4785 1
5230 4737 4786 1
5231 4738 4787 1
5232 4738 4788 1
5233 4738 4789 1
5234 4739 4790 1
5235 4739 4791 1
5236 4739 4792 1
5237 4740 4793 1
5238 4740 4794 1
5239 4740 4795 1
5240 4741 4796 1
5241 4742 4797 1
5242 4742 4798 1
5243 4742 4799 1
5244 4743 4800 1
5245 4743 4801 1
5246 4743 4802 1
5247 4744 4803 1
5248 4745 4804 1
5249 4748 4805 1
5250 4748 4806 1
5251 4748 4807 1
5252 4749 4808 1
5253 4749 4809 1
5254 4749 4810 1
5255 4813 4812 un
5256 4814 4813 un
5257 4815 4814 un
5258 4816 4815 un
5259 4811 4812 un
5260 4811 4816 un
5261 4818 4817 1
5262 4819 4818 un
5263 4820 4819 1
5264 4814 4817 1
5265 4813 4820 1
5266 4822 4821 un
5267 4823 4822 un
5268 4824 4823 un
5269 4819 4821 un
5270 4818 4824 un
5271 4826 4825 un
5272 4827 4826 un
5273 4828 4827 un
5274 4824 4825 un
5275 4823 4828 un
5276 4830 4829 1
5277 4831 4830 1
5278 4832 4831 un
5279 4827 4829 1
5280 4826 4832 un
5281 4834 4833 1
5282 4835 4834 un
5283 4836 4835 1
5284 4830 4833 1
5285 4829 4836 1
5286 4838 4837 un
5287 4839 4838 un
5288 4840 4839 un
5289 4832 4837 un
5290 4831 4840 un
5291 4842 4841 1
5292 4843 4842 un
5293 4844 4843 1
5294 4839 4841 1
5295 4838 4844 1
5296 4846 4845 1
5297 4847 4846 1
5298 4848 4847 un
5299 4843 4845 1
5300 4842 4848 un
5301 4850 4849 un
5302 4851 4850 un
5303 4852 4851 un
5304 4848 4849 un
5305 4847 4852 un
5306 4854 4853 1
5307 4855 4854 1
5308 4856 4855 1
5309 4852 4853 1
5310 4851 4856 1
5311 4858 4857 1
5312 4859 4858 un
5313 4850 4859 un
5314 4856 4857 1
5315 4861 4860 un
5316 4862 4861 un
5317 4863 4862 un
5318 4859 4860 un
5319 4858 4863 un
5320 4816 4864 1
5321 4864 4865 1
5322 4811 4866 1
5323 4815 4867 1
5324 4812 4868 1
5325 4821 4869 1
5326 4822 4870 1
5327 4828 4871 1
5328 4835 4872 1
5329 4834 4873 1
5330 4840 4874 1
5331 4837 4875 1
5332 4844 4876 2
5333 4841 4877 2
5334 4863 4878 1
5335 4862 4879 1
5336 4817 4880 1
5337 4817 4881 1
5338 4820 4882 1
5339 4820 4883 1
5340 4825 4884 1
5341 4833 4885 1
5342 4833 4886 1
5343 4834 4887 1
5344 4835 4888 1
5345 4836 4889 1
5346 4836 4890 1
5347 4845 4891 1
5348 4845 4892 1
5349 4846 4893 1
5350 4846 4894 1
5351 4853 4895 1
5352 4853 4896 1
5353 4854 4897 1
5354 4854 4898 1
5355 4855 4899 1
5356 4855 4900 1
5357 4856 4901 1
5358 4857 4902 1
5359 4857 4903 1
5360 4860 4904 1
5361 4861 4905 1
5362 4864 4906 1
5363 4864 4907 1
5364 4865 4908 1
5365 4865 4909 1
5366 4865 4910 1
5367 4866 4911 1
5368 4866 4912 1
5369 4866 4913 1
5370 4867 4914 1
5371 4867 4915 1
5372 4867 4916 1
5373 4868 4917 1
5374 4868 4918 1
5375 4868 4919 1
5376 4869 4920 1
5377 4869 4921 1
5378 4869 4922 1
5379 4870 4923 1
5380 4870 4924 1
5381 4870 4925 1
5382 4871 4926 1
5383 4872 4927 1
5384 4872 4928 1
5385 4872 4929 1
5386 4873 4930 1
5387 4873 4931 1
5388 4873 4932 1
5389 4874 4933 1
5390 4875 4934 1
5391 4878 4935 1
5392 4878 4936 1
5393 4878 4937 1
5394 4879 4938 1
5395 4879 4939 1
5396 4879 4940 1
5397 4943 4942 un
5398 4944 4943 un
5399 4945 4944 un
5400 4946 4945 un
5401 4941 4942 un
5402 4941 4946 un
5403 4948 4947 1
5404 4949 4948 un
5405 4950 4949 1
5406 4944 4947 1
5407 4943 4950 1
5408 4952 4951 un
5409 4953 4952 un
5410 4954 4953 un
5411 4949 4951 un
5412 4948 4954 un
5413 4956 4955 un
5414 4957 4956 un
5415 4958 4957 un
5416 4954 4955 un
5417 4953 4958 un
5418 4960 4959 1
5419 4961 4960 1
5420 4962 4961 un
5421 4957 4959 1
5422 4956 4962 un
5423 4964 4963 1
5424 4965 4964 un
5425 4966 4965 1
5426 4960 4963 1
5427 4959 4966 1
5428 4968 4967 un
5429 4969 4968 un
5430 4970 4969 un
5431 4962 4967 un
5432 4961 4970 un
5433 4972 4971 1
5434 4973 4972 un
5435 4974 4973 1
5436 4969 4971 1
5437 4968 4974 1
5438 4976 4975 1
5439 4977 4976 1
5440 4978 4977 un
5441 4973 4975 1
5442 4972 4978 un
5443 4980 4979 un
5444 4981 4980 un
5445 4982 4981 un
5446 4978 4979 un
5447 4977 4982 un
5448 4984 4983 1
5449 4985 4984 1
5450 4986 4985 1
5451 4982 4983 1
5452 4981 4986 1
5453 4988 4987 1
5454 4989 4988 un
5455 4980 4989 un
5456 4986 4987 1
5457 4991 4990 un
5458 4992 4991 un
5459 4993 4992 un
5460 4989 4990 un
5461 4988 4993 un
5462 4946 4994 1
5463 4994 4995 1
5464 4941 4996 1
5465 4945 4997 1
5466 4942 4998 1
5467 4951 4999 1
5468 4952 5000 1
5469 4958 5001 1
5470 4965 5002 1
5471 4964 5003 1
5472 4970 5004 1
5473 4967 5005 1
5474 4974 5006 2
5475 4971 5007 2
5476 4993 5008 1
5477 4992 5009 1
5478 4947 5010 1
5479 4947 5011 1
5480 4950 5012 1
5481 4950 5013 1
5482 4955 5014 1
5483 4963 5015 1
5484 4963 5016 1
5485 4964 5017 1
5486 4965 5018 1
5487 4966 5019 1
5488 4966 5020 1
5489 4975 5021 1
5490 4975 5022 1
5491 4976 5023 1
5492 4976 5024 1
5493 4983 5025 1
5494 4983 5026 1
5495 4984 5027 1
5496 4984 5028 1
5497 4985 5029 1
5498 4985 5030 1
5499 4986 5031 1
5500 4987 5032 1
5501 4987 5033 1
5502 4990 5034 1
5503 4991 5035 1
5504 4994 5036 1
5505 4994 5037 1
5506 4995 5038 1
5507 4995 5039 1
5508 4995 5040 1
5509 4996 5041 1
5510 4996 5042 1
5511 4996 5043 1
5512 4997 5044 1
5513 4997 5045 1
5514 4997 5046 1
5515 4998 5047 1
5516 4998 5048 1
5517 4998 5049 1
5518 4999 5050 1
5519 4999 5051 1
5520 4999 5052 1
5521 5000 5053 1
5522 5000 5054 1
5523 5000 5055 1
5524 5001 5056 1
5525 5002 5057 1
5526 5002 5058 1
5527 5002 5059 1
5528 5003 5060 1
5529 5003 5061 1
5530 5003 5062 1
5531 5004 5063 1
5532 5005 5064 1
5533 5008 5065 1
5534 5008 5066 1
5535 5008 5067 1
5536 5009 5068 1
5537 5009 5069 1
5538 5009 5070 1
5539 5073 5072 un
5540 5074 5073 un
5541 5075 5074 un
5542 5076 5075 un
5543 5071 5072 un
5544 5071 5076 un
5545 5078 5077 1
5546 5079 5078 un
5547 5080 5079 1
5548 5074 5077 1
5549 5073 5080 1
5550 5082 5081 un
5551 5083 5082 un
5552 5084 5083 un
5553 5079 5081 un
5554 5078 5084 un
5555 5086 5085 un
5556 5087 5086 un
5557 5088 5087 un
5558 5084 5085 un
5559 5083 5088 un
5560 5090 5089 1
5561 5091 5090 1
5562 5092 5091 un
5563 5087 5089 1
5564 5086 5092 un
5565 5094 5093 1
5566 5095 5094 un
5567 5096 5095 1
5568 5090 5093 1
5569 5089 5096 1
5570 5098 5097 un
5571 5099 5098 un
5572 5100 5099 un
5573 5092 5097 un
5574 5091 5100 un
5575 5102 5101 1
5576 5103 5102 un
5577 5104 5103 1
5578 5099 5101 1
5579 5098 5104 1
5580 5106 5105 1
5581 5107 5106 1
5582 5108 5107 un
5583 5103 5105 1
5584 5102 5108 un
5585 5110 5109 un
5586 5111 5110 un
5587 5112 5111 un
5588 5108 5109 un
5589 5107 5112 un
5590 5114 5113 1
5591 5115 5114 1
5592 5116 5115 1
5593 5112 5113 1
5594 5111 5116 1
5595 5118 5117 1
5596 5119 5118 un
5597 5110 5119 un
5598 5116 5117 1
5599 5121 5120 un
5600 5122 5121 un
5601 5123 5122 un
5602 5119 5120 un
5603 5118 5123 un
5604 5076 5124 1
5605 5124 5125 1
5606 5071 5126 1
5607 5075 5127 1
5608 5072 5128 1
5609 5081 5129 1
5610 5082 5130 1
5611 5088 5131 1
5612 5095 5132 1
5613 5094 5133 1
5614 5100 5134 1
5615 5097 5135 1
5616 5104 5136 2
5617 5101 5137 2
5618 5123 5138 1
5619 5122 5139 1
5620 5077 5140 1
5621 5077 5141 1
5622 5080 5142 1
5623 5080 5143 1
5624 5085 5144 1
5625 5093 5145 1
5626 5093 5146 1
5627 5094 5147 1
5628 5095 5148 1
5629 5096 5149 1
5630 5096 5150 1
5631 5105 5151 1
5632 5105 5152 1
5633 5106 5153 1
5634 5106 5154 1
5635 5113 5155 1
5636 5113 5156 1
5637 5114 5157 1
5638 5114 5158 1
5639 5115 5159 1
5640 5115 5160 1
5641 5116 5161 1
5642 5117 5162 1
5643 5117 5163 1
5644 5120 5164 1
5645 5121 5165 1
5646 5124 5166 1
5647 5124 5167 1
5648 5125 5168 1
5649 5125 5169 1
5650 5125 5170 1
5651 5126 5171 1
5652 5126 5172 1
5653 5126 5173 1
5654 5127 5174 1
5655 5127 5175 1
5656 5127 5176 1
5657 5128 5177 1
5658 5128 5178 1
5659 5128 5179 1
5660 5129 5180 1
5661 5129 5181 1
5662 5129 5182 1
5663 5130 5183 1
5664 5130 5184 1
5665 5130 5185 1
5666 5131 5186 1
5667 5132 5187 1
5668 5132 5188 1
5669 5132 5189 1
5670 5133 5190 1
5671 5133 5191 1
5672 5133 5192 1
5673 5134 5193 1
5674 5135 5194 1
5675 5138 5195 1
5676 5138 5196 1
5677 5138 5197 1
5678 5139 5198 1
5679 5139 5199 1
5680 5139 5200 1
5681 5203 5202 un
5682 5204 5203 un
5683 5205 5204 un
5684 5206 5205 un
5685 5201 5202 un
5686 5201 5206 un
5687 5208 5207 1
5688 5209 5208 un
5689 5210 5209 1
5690 5204 5207 1
5691 5203 5210 1
5692 5212 5211 un
5693 5213 5212 un
5694 5214 5213 un
5695 5209 5211 un
5696 5208 5214 un
5697 5216 5215 un
5698 5217 5216 un
5699 5218 5217 un
5700 5214 5215 un
5701 5213 5218 un
5702 5220 5219 1
5703 5221 5220 1
5704 5222 5221 un
5705 5217 5219 1
5706 5216 5222 un
5707 5224 5223 1
5708 5225 5224 un
5709 5226 5225 1
5710 5220 5223 1
5711 5219 5226 1
5712 5228 5227 un
5713 5229 5228 un
5714 5230 5229 un
5715 5222 5227 un
5716 5221 5230 un
5717 5232 5231 1
5718 5233 5232 un
5719 5234 5233 1
5720 5229 5231 1
5721 5228 5234 1
5722 5236 5235 1
5723 5237 5236 1
5724 5238 5237 un
5725 5233 5235 1
5726 5232 5238 un
5727 5240 5239 un
5728 5241 5240 un
5729 5242 5241 un
5730 5238 5239 un
5731 5237 5242 un
5732 5244 5243 1
5733 5245 5244 1
5734 5246 5245 1
5735 5242 5243 1
5736 5241 5246 1
5737 5248 5247 1
5738 5249 5248 un
5739 5240 5249 un
5740 5246 5247 1
5741 5251 5250 un
5742 5252 5251 un
5743 5253 5252 un
5744 5249 5250 un
5745 5248 5253 un
5746 5206 5254 1
5747 5254 5255 1
5748 5201 5256 1
5749 5205 5257 1
5750 5202 5258 1
5751 5211 5259 1
5752 5212 5260 1
5753 5218 5261 1
5754 5225 5262 1
5755 5224 5263 1
5756 5230 5264 1
5757 5227 5265 1
5758 5234 5266 2
5759 5231 5267 2
5760 5253 5268 1
5761 5252 5269 1
5762 5207 5270 1
5763 5207 5271 1
5764 5210 5272 1
5765 5210 5273 1
5766 5215 5274 1
5767 5223 5275 1
5768 5223 5276 1
5769 5224 5277 1
5770 5225 5278 1
5771 5226 5279 1
5772 5226 5280 1
5773 5235 5281 1
5774 5235 5282 1
5775 5236 5283 1
5776 5236 5284 1
5777 5243 5285 1
5778 5243 5286 1
5779 5244 5287 1
5780 5244 5288 1
5781 5245 5289 1
5782 5245 5290 1
5783 5246 5291 1
5784 5247 5292 1
5785 5247 5293 1
5786 5250 5294 1
5787 5251 5295 1
5788 5254 5296 1
5789 5254 5297 1
5790 5255 5298 1
5791 5255 5299 1
5792 5255 5300 1
5793 5256 5301 1
5794 5256 5302 1
5795 5256 5303 1
5796 5257 5304 1
5797 5257 5305 1
5798 5257 5306 1
5799 5258 5307 1
5800 5258 5308 1
5801 5258 5309 1
5802 5259 5310 1
5803 5259 5311 1
5804 5259 5312 1
5805 5260 5313 1
5806 5260 5314 1
5807 5260 5315 1
5808 5261 5316 1
5809 5262 5317 1
5810 5262 5318 1
5811 5262 5319 1
5812 5263 5320 1
5813 5263 5321 1
5814 5263 5322 1
5815 5264 5323 1
5816 5265 5324 1
5817 5268 5325 1
5818 5268 5326 1
5819 5268 5327 1
5820 5269 5328 1
5821 5269 5329 1
5822 5269 5330 1
5823 5333 5332 un
5824 5334 5333 un
5825 5335 5334 un
5826 5336 5335 un
5827 5331 5332 un
5828 5331 5336 un
5829 5338 5337 1
5830 5339 5338 un
5831 5340 5339 1
5832 5334 5337 1
5833 5333 5340 1
5834 5342 5341 un
5835 5343 5342 un
5836 5344 5343 un
5837 5339 5341 un
5838 5338 5344 un
5839 5346 5345 un
5840 5347 5346 un
5841 5348 5347 un
5842 5344 5345 un
5843 5343 5348 un
5844 5350 5349 1
5845 5351 5350 1
5846 5352 5351 un
5847 5347 5349 1
5848 5346 5352 un
5849 5354 5353 1
5850 5355 5354 un
5851 5356 5355 1
5852 5350 5353 1
5853 5349 5356 1
5854 5358 5357 un
5855 5359 5358 un
5856 5360 5359 un
5857 5352 5357 un
5858 5351 5360 un
5859 5362 5361 1
5860 5363 5362 un
5861 5364 5363 1
5862 5359 5361 1
5863 5358 5364 1
5864 5366 5365 1
5865 5367 5366 1
5866 5368 5367 un
5867 5363 5365 1
5868 5362 5368 un
5869 5370 5369 un
5870 5371 5370 un
5871 5372 5371 un
5872 5368 5369 un
5873 5367 5372 un
5874 5374 5373 1
5875 5375 5374 1
5876 5376 5375 1
5877 5372 5373 1
5878 5371 5376 1
5879 5378 5377 1
5880 5379 5378 un
5881 5370 5379 un
5882 5376 5377 1
5883 5381 5380 un
5884 5382 5381 un
5885 5383 5382 un
5886 5379 5380 un
5887 5378 5383 un
5888 5336 5384 1
5889 5384 5385 1
5890 5331 5386 1
5891 5335 5387 1
5892 5332 5388 1
5893 5341 5389 1
5894 5342 5390 1
5895 5348 5391 1
5896 5355 5392 1
5897 5354 5393 1
5898 5360 5394 1
5899 5357 5395 1
5900 5364 5396 2
5901 5361 5397 2
5902 5383 5398 1
5903 5382 5399 1
5904 5337 5400 1
5905 5337 5401 1
5906 5340 5402 1
5907 5340 5403 1
5908 5345 5404 1
5909 5353 5405 1
5910 5353 5406 1
5911 5354 5407 1
5912 5355 5408 1
5913 5356 5409 1
5914 5356 5410 1
5915 5365 5411 1
5916 5365 5412 1
5917 5366 5413 1
5918 5366 5414 1
5919 5373 5415 1
5920 5373 5416 1
5921 5374 5417 1
5922 5374 5418 1
5923 5375 5419 1
5924 5375 5420 1
5925 5376 5421 1
5926 5377 5422 1
5927 5377 5423 1
5928 5380 5424 1
5929 5381 5425 1
5930 5384 5426 1
5931 5384 5427 1
5932 5385 5428 1
5933 5385 5429 1
5934 5385 5430 1
5935 5386 5431 1
5936 5386 5432 1
5937 5386 5433 1
5938 5387 5434 1
5939 5387 5435 1
5940 5387 5436 1
5941 5388 5437 1
5942 5388 5438 1
5943 5388 5439 1
5944 5389 5440 1
5945 5389 5441 1
5946 5389 5442 1
5947 5390 5443 1
5948 5390 5444 1
5949 5390 5445 1
5950 5391 5446 1
5951 5392 5447 1
5952 5392 5448 1
5953 5392 5449 1
5954 5393 5450 1
5955 5393 5451 1
5956 5393 5452 1
5957 5394 5453 1
5958 5395 5454 1
5959 5398 5455 1
5960 5398 5456 1
5961 5398 5457 1
5962 5399 5458 1
5963 5399 5459 1
5964 5399 5460 1
5965 5463 5462 un
5966 5464 5463 un
5967 5465 5464 un
5968 5466 5465 un
5969 5461 5462 un
5970 5461 5466 un
5971 5468 5467 1
5972 5469 5468 un
5973 5470 5469 1
5974 5464 5467 1
5975 5463 5470 1
5976 5472 5471 un
5977 5473 5472 un
5978 5474 5473 un
5979 5469 5471 un
5980 5468 5474 un
5981 5476 5475 un
5982 5477 5476 un
5983 5478 5477 un
5984 5474 5475 un
5985 5473 5478 un
5986 5480 5479 1
5987 5481 5480 1
5988 5482 5481 un
5989 5477 5479 1
5990 5476 5482 un
5991 5484 5483 1
5992 5485 5484 un
5993 5486 5485 1
5994 5480 5483 1
5995 5479 5486 1
5996 5488 5487 un
5997 5489 5488 un
5998 5490 5489 un
5999 5482 5487 un
6000 5481 5490 un
6001 5492 5491 1
6002 5493 5492 un
6003 5494 5493 1
6004 5489 5491 1
6005 5488 5494 1
6006 5496 5495 1
6007 5497 5496 1
6008 5498 5497 un
6009 5493 5495 1
6010 5492 5498 un
6011 5500 5499 un
6012 5501 5500 un
6013 5502 5501 un
6014 5498 5499 un
6015 5497 5502 un
6016 5504 5503 1
6017 5505 5504 1
6018 5506 5505 1
6019 5502 5503 1
6020 5501 5506 1
6021 5508 5507 1
6022 5509 5508 un
6023 5500 5509 un
6024 5506 5507 1
6025 5511 5510 un
6026 5512 5511 un
6027 5513 5512 un
6028 5509 5510 un
6029 5508 5513 un
6030 5466 5514 1
6031 5514 5515 1
6032 5461 5516 1
6033 5465 5517 1
6034 5462 5518 1
6035 5471 5519 1
6036 5472 5520 1
6037 5478 5521 1
6038 5485 5522 1
6039 5484 5523 1
6040 5490 5524 1
6041 5487 5525 1
6042 5494 5526 2
6043 5491 5527 2
6044 5513 5528 1
6045 5512 5529 1
6046 5467 5530 1
6047 5467 5531 1
6048 5470 5532 1
6049 5470 5533 1
6050 5475 5534 1
6051 5483 5535 1
6052 5483 5536 1
6053 5484 5537 1
6054 5485 5538 1
6055 5486 5539 1
6056 5486 5540 1
6057 5495 5541 1
6058 5495 5542 1
6059 5496 5543 1
6060 5496 5544 1
6061 5503 5545 1
6062 5503 5546 1
6063 5504 5547 1
6064 5504 5548 1
6065 5505 5549 1
6066 5505 5550 1
6067 5506 5551 1
6068 5507 5552 1
6069 5507 5553 1
6070 5510 5554 1
6071 5511 5555 1
6072 5514 5556 1
6073 5514 5557 1
6074 5515 5558 1
6075 5515 5559 1
6076 5515 5560 1
6077 5516 5561 1
6078 5516 5562 1
6079 5516 5563 1
6080 5517 5564 1
6081 5517 5565 1
6082 5517 5566 1
6083 5518 5567 1
6084 5518 5568 1
6085 5518 5569 1
6086 5519 5570 1
6087 5519 5571 1
6088 5519 5572 1
6089 5520 5573 1
6090 5520 5574 1
6091 5520 5575 1
6092 5521 5576 1
6093 5522 5577 1
6094 5522 5578 1
6095 5522 5579 1
6096 5523 5580 1
6097 5523 5581 1
6098 5523 5582 1
6099 5524 5583 1
6100 5525 5584 1
6101 5528 5585 1
6102 5528 5586 1
6103 5528 5587 1
6104 5529 5588 1
6105 5529 5589 1
6106 5529 5590 1
6107 5593 5592 un
6108 5594 5593 un
6109 5595 5594 un
6110 5596 5595 un
6111 5591 5592 un
6112 5591 5596 un
6113 5598 5597 1
6114 5599 5598 un
6115 5600 5599 1
6116 5594 5597 1
6117 5593 5600 1
6118 5602 5601 un
6119 5603 5602 un
6120 5604 5603 un
6121 5599 5601 un
6122 5598 5604 un
6123 5606 5605 un
6124 5607 5606 un
6125 5608 5607 un
6126 5604 5605 un
6127 5603 5608 un
6128 5610 5609 1
6129 5611 5610 1
6130 5612 5611 un
6131 5607 5609 1
6132 5606 5612 un
6133 5614 5613 1
6134 5615 5614 un
6135 5616 5615 1
6136 5610 5613 1
6137 5609 5616 1
6138 5618 5617 un
6139 5619 5618 un
6140 5620 5619 un
6141 5612 5617 un
6142 5611 5620 un
6143 5622 5621 1
6144 5623 5622 un
6145 5624 5623 1
6146 5619 5621 1
6147 5618 5624 1
6148 5626 5625 1
6149 5627 5626 1
6150 5628 5627 un
6151 5623 5625 1
6152 5622 5628 un
6153 5630 5629 un
6154 5631 5630 un
6155 5632 5631 un
6156 5628 5629 un
6157 5627 5632 un
6158 5634 5633 1
6159 5635 5634 1
6160 5636 5635 1
6161 5632 5633 1
6162 5631 5636 1
6163 5638 5637 1
6164 5639 5638 un
6165 5630 5639 un
6166 5636 5637 1
6167 5641 5640 un
6168 5642 5641 un
6169 5643 5642 un
6170 5639 5640 un
6171 5638 5643 un
6172 5596 5644 1
6173 5644 5645 1
6174 5591 5646 1
6175 5595 5647 1
6176 5592 5648 1
6177 5601 5649 1
6178 5602 5650 1
6179 5608 5651 1
6180 5615 5652 1
6181 5614 5653 1
6182 5620 5654 1
6183 5617 5655 1
6184 5624 5656 2
6185 5621 5657 2
6186 5643 5658 1
6187 5642 5659 1
6188 5597 5660 1
6189 5597 5661 1
6190 5600 5662 1
6191 5600 5663 1
6192 5605 5664 1
6193 5613 5665 1
6194 5613 5666 1
6195 5614 5667 1
6196 5615 5668 1
6197 5616 5669 1
6198 5616 5670 1
6199 5625 5671 1
6200 5625 5672 1
6201 5626 5673 1
6202 5626 5674 1
6203 5633 5675 1
6204 5633 5676 1
6205 5634 5677 1
6206 5634 5678 1
6207 5635 5679 1
6208 5635 5680 1
6209 5636 5681 1
6210 5637 5682 1
6211 5637 5683 1
6212 5640 5684 1
6213 5641 5685 1
6214 5644 5686 1
6215 5644 5687 1
6216 5645 5688 1
6217 5645 5689 1
6218 5645 5690 1
6219 5646 5691 1
6220 5646 5692 1
6221 5646 5693 1
6222 5647 5694 1
6223 5647 5695 1
6224 5647 5696 1
6225 5648 5697 1
6226 5648 5698 1
6227 5648 5699 1
6228 5649 5700 1
6229 5649 5701 1
6230 5649 5702 1
6231 5650 5703 1
6232 5650 5704 1
6233 5650 5705 1
6234 5651 5706 1
6235 5652 5707 1
6236 5652 5708 1
6237 5652 5709 1
6238 5653 5710 1
6239 5653 5711 1
6240 5653 5712 1
6241 5654 5713 1
6242 5655 5714 1
6243 5658 5715 1
6244 5658 5716 1
6245 5658 5717 1
6246 5659 5718 1
6247 5659 5719 1
6248 5659 5720 1
6249 5723 5722 un
6250 5724 5723 un
6251 5725 5724 un
6252 5726 5725 un
6253 5721 5722 un
6254 5721 5726 un
6255 5728 5727 1
6256 5729 5728 un
6257 5730 5729 1
6258 5724 5727 1
6259 5723 5730 1
6260 5732 5731 un
6261 5733 5732 un
6262 5734 5733 un
6263 5729 5731 un
6264 5728 5734 un
6265 5736 5735 un
6266 5737 5736 un
6267 5738 5737 un
6268 5734 5735 un
6269 5733 5738 un
6270 5740 5739 1
6271 5741 5740 1
6272 5742 5741 un
6273 5737 5739 1
6274 5736 5742 un
6275 5744 5743 1
6276 5745 5744 un
6277 5746 5745 1
6278 5740 5743 1
6279 5739 5746 1
6280 5748 5747 un
6281 5749 5748 un
6282 5750 5749 un
6283 5742 5747 un
6284 5741 5750 un
6285 5752 5751 1
6286 5753 5752 un
6287 5754 5753 1
6288 5749 5751 1
6289 5748 5754 1
6290 5756 5755 1
6291 5757 5756 1
6292 5758 5757 un
6293 5753 5755 1
6294 5752 5758 un
6295 5760 5759 un
6296 5761 5760 un
6297 5762 5761 un
6298 5758 5759 un
6299 5757 5762 un
6300 5764 5763 1
6301 5765 5764 1
6302 5766 5765 1
6303 5762 5763 1
6304 5761 5766 1
6305 5768 5767 1
6306 5769 5768 un
6307 5760 5769 un
6308 5766 5767 1
6309 5771 5770 un
6310 5772 5771 un
6311 5773 5772 un
6312 5769 5770 un
6313 5768 5773 un
6314 5726 5774 1
6315 5774 5775 1
6316 5721 5776 1
6317 5725 5777 1
6318 5722 5778 1
6319 5731 5779 1
6320 5732 5780 1
6321 5738 5781 1
6322 5745 5782 1
6323 5744 5783 1
6324 5750 5784 1
6325 5747 5785 1
6326 5754 5786 2
6327 5751 5787 2
6328 5773 5788 1
6329 5772 5789 1
6330 5727 5790 1
6331 5727 5791 1
6332 5730 5792 1
6333 5730 5793 1
6334 5735 5794 1
6335 5743 5795 1
6336 5743 5796 1
6337 5744 5797 1
6338 5745 5798 1
6339 5746 5799 1
6340 5746 5800 1
6341 5755 5801 1
6342 5755 5802 1
6343 5756 5803 1
6344 5756 5804 1
6345 5763 5805 1
6346 5763 5806 1
6347 5764 5807 1
6348 5764 5808 1
6349 5765 5809 1
6350 5765 5810 1
6351 5766 5811 1
6352 5767 5812 1
6353 5767 5813 1
6354 5770 5814 1
6355 5771 5815 1
6356 5774 5816 1
6357 5774 5817 1
6358 5775 5818 1
6359 5775 5819 1
6360 5775 5820 1
6361 5776 5821 1
6362 5776 5822 1
6363 5776 5823 1
6364 5777 5824 1
6365 5777 5825 1
6366 5777 5826 1
6367 5778 5827 1
6368 5778 5828 1
6369 5778 5829 1
6370 5779 5830 1
6371 5779 5831 1
6372 5779 5832 1
6373 5780 5833 1
6374 5780 5834 1
6375 5780 5835 1
6376 5781 5836 1
6377 5782 5837 1
6378 5782 5838 1
6379 5782 5839 1
6380 5783 5840 1
6381 5783 5841 1
6382 5783 5842 1
6383 5784 5843 1
6384 5785 5844 1
6385 5788 5845 1
6386 5788 5846 1
6387 5788 5847 1
6388 5789 5848 1
6389 5789 5849 1
6390 5789 5850 1
6391 5853 5852 un
6392 5854 5853 un
6393 5855 5854 un
6394 5856 5855 un
6395 5851 5852 un
6396 5851 5856 un
6397 5858 5857 1
6398 5859 5858 un
6399 5860 5859 1
6400 5854 5857 1
6401 5853 5860 1
6402 5862 5861 un
6403 5863 5862 un
6404 5864 5863 un
6405 5859 5861 un
6406 5858 5864 un
6407 5866 5865 un
6408 5867 5866 un
6409 5868 5867 un
6410 5864 5865 un
6411 5863 5868 un
6412 5870 5869 1
6413 5871 5870 1
6414 5872 5871 un
6415 5867 5869 1
6416 5866 5872 un
6417 5874 5873 1
6418 5875 5874 un
6419 5876 5875 1
6420 5870 5873 1
6421 5869 5876 1
6422 5878 5877 un
6423 5879 5878 un
6424 5880 5879 un
6425 5872 5877 un
6426 5871 5880 un
6427 5882 5881 1
6428 5883 5882 un
6429 5884 5883 1
6430 5879 5881 1
6431 5878 5884 1
6432 5886 5885 1
6433 5887 5886 1
6434 5888 5887 un
6435 5883 5885 1
6436 5882 5888 un
6437 5890 5889 un
6438 5891 5890 un
6439 5892 5891 un
6440 5888 5889 un
6441 5887 5892 un
6442 5894 5893 1
6443 5895 5894 1
6444 5896 5895 1
6445 5892 5893 1
6446 5891 5896 1
6447 5898 5897 1
6448 5899 5898 un
6449 5890 5899 un
6450 5896 5897 1
6451 5901 5900 un
6452 5902 5901 un
6453 5903 5902 un
6454 5899 5900 un
6455 5898 5903 un
6456 5856 5904 1
6457 5904 5905 1
6458 5851 5906 1
6459 5855 5907 1
6460 5852 5908 1
6461 5861 5909 1
6462 5862 5910 1
6463 5868 5911 1
6464 5875 5912 1
6465 5874 5913 1
6466 5880 5914 1
6467 5877 5915 1
6468 5884 5916 2
6469 5881 5917 2
6470 5903 5918 1
6471 5902 5919 1
6472 5857 5920 1
6473 5857 5921 1
6474 5860 5922 1
6475 5860 5923 1
6476 5865 5924 1
6477 5873 5925 1
6478 5873 5926 1
6479 5874 5927 1
6480 5875 5928 1
6481 5876 5929 1
6482 5876 5930 1
6483 5885 5931 1
6484 5885 5932 1
6485 5886 5933 1
6486 5886 5934 1
6487 5893 5935 1
6488 5893 5936 1
6489 5894 5937 1
6490 5894 5938 1
6491 5895 5939 1
6492 5895 5940 1
6493 5896 5941 1
6494 5897 5942 1
6495 5897 5943 1
6496 5900 5944 1
6497 5901 5945 1
6498 5904 5946 1
6499 5904 5947 1
6500 5905 5948 1
6501 5905 5949 1
6502 5905 5950 1
6503 5906 5951 1
6504 5906 5952 1
6505 5906 5953 1
6506 5907 5954 1
6507 5907 5955 1
6508 5907 5956 1
6509 5908 5957 1
6510 5908 5958 1
6511 5908 5959 1
6512 5909 5960 1
6513 5909 5961 1
6514 5909 5962 1
6515 5910 5963 1
6516 5910 5964 1
6517 5910 5965 1
6518 5911 5966 1
6519 5912 5967 1
6520 5912 5968 1
6521 5912 5969 1
6522 5913 5970 1
6523 5913 5971 1
6524 5913 5972 1
6525 5914 5973 1
6526 5915 5974 1
6527 5918 5975 1
6528 5918 5976 1
6529 5918 5977 1
6530 5919 5978 1
6531 5919 5979 1
6532 5919 5980 1
6533 5983 5982 un
6534 5984 5983 un
6535 5985 5984 un
6536 5986 5985 un
6537 5981 5982 un
6538 5981 5986 un
6539 5988 5987 1
6540 5989 5988 un
6541 5990 5989 1
6542 5984 5987 1
6543 5983 5990 1
6544 5992 5991 un
6545 5993 5992 un
6546 5994 5993 un
6547 5989 5991 un
6548 5988 5994 un
6549 5996 5995 un
6550 5997 5996 un
6551 5998 5997 un
6552 5994 5995 un
6553 5993 5998 un
6554 6000 5999 1
6555 6001 6000 1
6556 6002 6001 un
6557 5997 5999 1
6558 5996 6002 un
6559 6004 6003 1
6560 6005 6004 un
6561 6006 6005 1
6562 6000 6003 1
6563 5999 6006 1
6564 6008 6007 un
6565 6009 6008 un
6566 6010 6009 un
6567 6002 6007 un
6568 6001 6010 un
6569 6012 6011 1
6570 6013 6012 un
6571 6014 6013 1
6572 6009 6011 1
6573 6008 6014 1
6574 6016 6015 1
6575 6017 6016 1
6576 6018 6017 un
6577 6013 6015 1
6578 6012 6018 un
6579 6020 6019 un
6580 6021 6020 un
6581 6022 6021 un
6582 6018 6019 un
6583 6017 6022 un
6584 6024 6023 1
6585 6025 6024 1
6586 6026 6025 1
6587 6022 6023 1
6588 6021 6026 1
6589 6028 6027 1
6590 6029 6028 un
6591 6020 6029 un
6592 6026 6027 1
6593 6031 6030 un
6594 6032 6031 un
6595 6033 6032 un
6596 6029 6030 un
6597 6028 6033 un
6598 5986 6034 1
6599 6034 6035 1
6600 5981 6036 1
6601 5985 6037 1
6602 5982 6038 1
6603 5991 6039 1
6604 5992 6040 1
6605 5998 6041 1
6606 6005 6042 1
6607 6004 6043 1
6608 6010 6044 1
6609 6007 6045 1
6610 6014 6046 2
6611 6011 6047 2
6612 6033 6048 1
6613 6032 6049 1
6614 5987 6050 1
6615 5987 6051 1
6616 5990 6052 1
6617 5990 6053 1
6618 5995 6054 1
6619 6003 6055 1
6620 6003 6056 1
6621 6004 6057 1
6622 6005 6058 1
6623 6006 6059 1
6624 6006 6060 1
6625 6015 6061 1
6626 6015 6062 1
6627 6016 6063 1
6628 6016 6064 1
6629 6023 6065 1
6630 6023 6066 1
6631 6024 6067 1
6632 6024 6068 1
6633 6025 6069 1
6634 6025 6070 1
6635 6026 6071 1
6636 6027 6072 1
6637 6027 6073 1
6638 6030 6074 1
6639 6031 6075 1
6640 6034 6076 1
6641 6034 6077 1
6642 6035 6078 1
6643 6035 6079 1
6644 6035 6080 1
6645 6036 6081 1
6646 6036 6082 1
6647 6036 6083 1
6648 6037 6084 1
6649 6037 6085 1
6650 6037 6086 1
6651 6038 6087 1
6652 6038 6088 1
6653 6038 6089 1
6654 6039 6090 1
6655 6039 6091 1
6656 6039 6092 1
6657 6040 6093 1
6658 6040 6094 1
6659 6040 6095 1
6660 6041 6096 1
6661 6042 6097 1
6662 6042 6098 1
6663 6042 6099 1
6664 6043 6100 1
6665 6043 6101 1
6666 6043 6102 1
6667 6044 6103 1
6668 6045 6104 1
6669 6048 6105 1
6670 6048 6106 1
6671 6048 6107 1
6672 6049 6108 1
6673 6049 6109 1
6674 6049 6110 1
6675 6113 6112 un
6676 6114 6113 un
6677 6115 6114 un
6678 6116 6115 un
6679 6111 6112 un
6680 6111 6116 un
6681 6118 6117 1
6682 6119 6118 un
6683 6120 6119 1
6684 6114 6117 1
6685 6113 6120 1
6686 6122 6121 un
6687 6123 6122 un
6688 6124 6123 un
6689 6119 6121 un
6690 6118 6124 un
6691 6126 6125 un
6692 6127 6126 un
6693 6128 6127 un
6694 6124 6125 un
6695 6123 6128 un
6696 6130 6129 1
6697 6131 6130 1
6698 6132 6131 un
6699 6127 6129 1
6700 6126 6132 un
6701 6134 6133 1
6702 6135 6134 un
6703 6136 6135 1
6704 6130 6133 1
6705 6129 6136 1
6706 6138 6137 un
6707 6139 6138 un
6708 6140 6139 un
6709 6132 6137 un
6710 6131 6140 un
6711 6142 6141 1
6712 6143 6142 un
6713 6144 6143 1
6714 6139 6141 1
6715 6138 6144 1
6716 6146 6145 1
6717 6147 6146 1
6718 6148 6147 un
6719 6143 6145 1
6720 6142 6148 un
6721 6150 6149 un
6722 6151 6150 un
6723 6152 6151 un
6724 6148 6149 un
6725 6147 6152 un
6726 6154 6153 1
6727 6155 6154 1
6728 6156 6155 1
6729 6152 6153 1
6730 6151 6156 1
6731 6158 6157 1
6732 6159 6158 un
6733 6150 6159 un
6734 6156 6157 1
6735 6161 6160 un
6736 6162 6161 un
6737 6163 6162 un
6738 6159 6160 un
6739 6158 6163 un
6740 6116 6164 1
6741 6164 6165 1
6742 6111 6166 1
6743 6115 6167 1
6744 6112 6168 1
6745 6121 6169 1
6746 6122 6170 1
6747 6128 6171 1
6748 6135 6172 1
6749 6134 6173 1
6750 6140 6174 1
6751 6137 6175 1
6752 6144 6176 2
6753 6141 6177 2
6754 6163 6178 1
6755 6162 6179 1
6756 6117 6180 1
6757 6117 6181 1
6758 6120 6182 1
6759 6120 6183 1
6760 6125 6184 1
6761 6133 6185 1
6762 6133 6186 1
6763 6134 6187 1
6764 6135 6188 1
6765 6136 6189 1
6766 6136 6190 1
6767 6145 6191 1
6768 6145 6192 1
6769 6146 6193 1
6770 6146 6194 1
6771 6153 6195 1
6772 6153 6196 1
6773 6154 6197 1
6774 6154 6198 1
6775 6155 6199 1
6776 6155 6200 1
6777 6156 6201 1
6778 6157 6202 1
6779 6157 6203 1
6780 6160 6204 1
6781 6161 6205 1
6782 6164 6206 1
6783 6164 6207 1
6784 6165 6208 1
6785 6165 6209 1
6786 6165 6210 1
6787 6166 6211 1
6788 6166 6212 1
6789 6166 6213 1
6790 6167 6214 1
6791 6167 6215 1
6792 6167 6216 1
6793 6168 6217 1
6794 6168 6218 1
6795 6168 6219 1
6796 6169 6220 1
6797 6169 6221 1
6798 6169 6222 1
6799 6170 6223 1
6800 6170 6224 1
6801 6170 6225 1
6802 6171 6226 1
6803 6172 6227 1
6804 6172 6228 1
6805 6172 6229 1
6806 6173 6230 1
6807 6173 6231 1
6808 6173 6232 1
6809 6174 6233 1
6810 6175 6234 1
6811 6178 6235 1
6812 6178 6236 1
6813 6178 6237 1
6814 6179 6238 1
6815 6179 6239 1
6816 6179 6240 1
6817 6243 6242 un
6818 6244 6243 un
6819 6245 6244 un
6820 6246 6245 un
6821 6241 6242 un
6822 6241 6246 un
6823 6248 6247 1
6824 6249 6248 un
6825 6250 6249 1
6826 6244 6247 1
6827 6243 6250 1
6828 6252 6251 un
6829 6253 6252 un
6830 6254 6253 un
6831 6249 6251 un
6832 6248 6254 un
6833 6256 6255 un
6834 6257 6256 un
6835 6258 6257 un
6836 6254 6255 un
6837 6253 6258 un
6838 6260 6259 1
6839 6261 6260 1
6840 6262 6261 un
6841 6257 6259 1
6842 6256 6262 un
6843 6264 6263 1
6844 6265 6264 un
6845 6266 6265 1
6846 6260 6263 1
6847 6259 6266 1
6848 6268 6267 un
6849 6269 6268 un
6850 6270 6269 un
6851 6262 6267 un
6852 6261 6270 un
6853 6272 6271 1
6854 6273 6272 un
6855 6274 6273 1
6856 6269 6271 1
6857 6268 6274 1
6858 6276 6275 1
6859 6277 6276 1
6860 6278 6277 un
6861 6273 6275 1
6862 6272 6278 un
6863 6280 6279 un
6864 6281 6280 un
6865 6282 6281 un
6866 6278 6279 un
6867 6277 6282 un
6868 6284 6283 1
6869 6285 6284 1
6870 6286 6285 1
6871 6282 6283 1
6872 6281 6286 1
6873 6288 6287 1
6874 6289 6288 un
6875 6280 6289 un
6876 6286 6287 1
6877 6291 6290 un
6878 6292 6291 un
6879 6293 6292 un
6880 6289 6290 un
6881 6288 6293 un
6882 6246 6294 1
6883 6294 6295 1
6884 6241 6296 1
6885 6245 6297 1
6886 6242 6298 1
6887 6251 6299 1
6888 6252 6300 1
6889 6258 6301 1
6890 6265 6302 1
6891 6264 6303 1
6892 6270 6304 1
6893 6267 6305 1
6894 6274 6306 2
6895 6271 6307 2
6896 6293 6308 1
6897 6292 6309 1
6898 6247 6310 1
6899 6247 6311 1
6900 6250 6312 1
6901 6250 6313 1
6902 6255 6314 1
6903 6263 6315 1
6904 6263 6316 1
6905 6264 6317 1
6906 6265 6318 1
6907 6266 6319 1
6908 6266 6320 1
6909 6275 6321 1
6910 6275 6322 1
6911 6276 6323 1
6912 6276 6324 1
6913 6283 6325 1
6914 6283 6326 1
6915 6284 6327 1
6916 6284 6328 1
6917 6285 6329 1
6918 6285 6330 1
6919 6286 6331 1
6920 6287 6332 1
6921 6287 6333 1
6922 6290 6334 1
6923 6291 6335 1
6924 6294 6336 1
6925 6294 6337 1
6926 6295 6338 1
6927 6295 6339 1
6928 6295 6340 1
6929 6296 6341 1
6930 6296 6342 1
6931 6296 6343 1
6932 6297 6344 1
6933 6297 6345 1
6934 6297 6346 1
6935 6298 6347 1
6936 6298 6348 1
6937 6298 6349 1
6938 6299 6350 1
6939 6299 6351 1
6940 6299 6352 1
6941 6300 6353 1
6942 6300 6354 1
6943 6300 6355 1
6944 6301 6356 1
6945 6302 6357 1
6946 6302 6358 1
6947 6302 6359 1
6948 6303 6360 1
6949 6303 6361 1
6950 6303 6362 1
6951 6304 6363 1
6952 6305 6364 1
6953 6308 6365 1
6954 6308 6366 1
6955 6308 6367 1
6956 6309 6368 1
6957 6309 6369 1
6958 6309 6370 1
6959 6373 6372 un
6960 6374 6373 un
6961 6375 6374 un
6962 6376 6375 un
6963 6371 6372 un
6964 6371 6376 un
6965 6378 6377 1
6966 6379 6378 un
6967 6380 6379 1
6968 6374 6377 1
6969 6373 6380 1
6970 6382 6381 un
6971 6383 6382 un
6972 6384 6383 un
6973 6379 6381 un
6974 6378 6384 un
6975 6386 6385 un
6976 6387 6386 un
6977 6388 6387 un
6978 6384 6385 un
6979 6383 6388 un
6980 6390 6389 1
6981 6391 6390 1
6982 6392 6391 un
6983 6387 6389 1
6984 6386 6392 un
6985 6394 6393 1
6986 6395 6394 un
6987 6396 6395 1
6988 6390 6393 1
6989 6389 6396 1
6990 6398 6397 un
6991 6399 6398 un
6992 6400 6399 un
6993 6392 6397 un
6994 6391 6400 un
6995 6402 6401 1
6996 6403 6402 un
6997 6404 6403 1
6998 6399 6401 1
6999 6398 6404 1
7000 6406 6405 1
7001 6407 6406 1
7002 6408 6407 un
7003 6403 6405 1
7004 6402 6408 un
7005 6410 6409 un
7006 6411 6410 un
7007 6412 6411 un
7008 6408 6409 un
7009 6407 6412 un
7010 6414 6413 1
7011 6415 6414 1
7012 6416 6415 1
7013 6412 6413 1
7014 6411 6416 1
7015 6418 6417 1
7016 6419 6418 un
7017 6410 6419 un
7018 6416 6417 1
7019 6421 6420 un
7020 6422 6421 un
7021 6423 6422 un
7022 6419 6420 un
7023 6418 6423 un
7024 6376 6424 1
7025 6424 6425 1
7026 6371 6426 1
7027 6375 6427 1
7028 6372 6428 1
7029 6381 6429 1
7030 6382 6430 1
7031 6388 6431 1
7032 6395 6432 1
7033 6394 6433 1
7034 6400 6434 1
7035 6397 6435 1
7036 6404 6436 2
7037 6401 6437 2
7038 6423 6438 1
7039 6422 6439 1
7040 6377 6440 1
7041 6377 6441 1
7042 6380 6442 1
7043 6380 6443 1
7044 6385 6444 1
7045 6393 6445 1
7046 6393 6446 1
7047 6394 6447 1
7048 6395 6448 1
7049 6396 6449 1
7050 6396 6450 1
7051 6405 6451 1
7052 6405 6452 1
7053 6406 6453 1
7054 6406 6454 1
7055 6413 6455 1
7056 6413 6456 1
7057 6414 6457 1
7058 6414 6458 1
7059 6415 6459 1
7060 6415 6460 1
7061 6416 6461 1
7062 6417 6462 1
7063 6417 6463 1
7064 6420 6464 1
7065 6421 6465 1
7066 6424 6466 1
7067 6424 6467 1
7068 6425 6468 1
7069 6425 6469 1
7070 6425 6470 1
7071 6426 6471 1
7072 6426 6472 1
7073 6426 6473 1
7074 6427 6474 1
7075 6427 6475 1
7076 6427 6476 1
7077 6428 6477 1
7078 6428 6478 1
7079 6428 6479 1
7080 6429 6480 1
7081 6429 6481 1
7082 6429 6482 1
7083 6430 6483 1
7084 6430 6484 1
7085 6430 6485 1
7086 6431 6486 1
7087 6432 6487 1
7088 6432 6488 1
7089 6432 6489 1
7090 6433 6490 1
7091 6433 6491 1
7092 6433 6492 1
7093 6434 6493 1
7094 6435 6494 1
7095 6438 6495 1
7096 6438 6496 1
7097 6438 6497 1
7098 6439 6498 1
7099 6439 6499 1
7100 6439 6500 1
7101 6503 6502 un
7102 6504 6503 un
7103 6505 6504 un
7104 6506 6505 un
7105 6501 6502 un
7106 6501 6506 un
7107 6508 6507 1
7108 6509 6508 un
7109 6510 6509 1
7110 6504 6507 1
7111 6503 6510 1
7112 6512 6511 un
7113 6513 6512 un
7114 6514 6513 un
7115 6509 6511 un
7116 6508 6514 un
7117 6516 6515 un
7118 6517 6516 un
7119 6518 6517 un
7120 6514 6515 un
7121 6513 6518 un
7122 6520 6519 1
7123 6521 6520 1
7124 6522 6521 un
7125 6517 6519 1
7126 6516 6522 un
7127 6524 6523 1
7128 6525 6524 un
7129 6526 6525 1
7130 6520 6523 1
7131 6519 6526 1
7132 6528 6527 un
7133 6529 6528 un
7134 6530 6529 un
7135 6522 6527 un
7136 6521 6530 un
7137 6532 6531 1
7138 6533 6532 un
7139 6534 6533 1
7140 6529 6531 1
7141 6528 6534 1
7142 6536 6535 1
7143 6537 6536 1
7144 6538 6537 un
7145 6533 6535 1
7146 6532 6538 un
7147 6540 6539 un
7148 6541 6540 un
7149 6542 6541 un
7150 6538 6539 un
7151 6537 6542 un
7152 6544 6543 1
7153 6545 6544 1
7154 6546 6545 1
7155 6542 6543 1
7156 6541 6546 1
7157 6548 6547 1
7158 6549 6548 un
7159 6540 6549 un
7160 6546 6547 1
7161 6551 6550 un
7162 6552 6551 un
7163 6553 6552 un
7164 6549 6550 un
7165 6548 6553 un
7166 6506 6554 1
7167 6554 6555 1
7168 6501 6556 1
7169 6505 6557 1
7170 6502 6558 1
7171 6511 6559 1
7172 6512 6560 1
7173 6518 6561 1
7174 6525 6562 1
7175 6524 6563 1
7176 6530 6564 1
7177 6527 6565 1
7178 6534 6566 2
7179 6531 6567 2
7180 6553 6568 1
7181 6552 6569 1
7182 6507 6570 1
7183 6507 6571 1
7184 6510 6572 1
7185 6510 6573 1
7186 6515 6574 1
7187 6523 6575 1
7188 6523 6576 1
7189 6524 6577 1
7190 6525 6578 1
7191 6526 6579 1
7192 6526 6580 1
7193 6535 6581 1
7194 6535 6582 1
7195 6536 6583 1
7196 6536 6584 1
7197 6543 6585 1
7198 6543 6586 1
7199 6544 6587 1
7200 6544 6588 1
7201 6545 6589 1
7202 6545 6590 1
7203 6546 6591 1
7204 6547 6592 1
7205 6547 6593 1
7206 6550 6594 1
7207 6551 6595 1
7208 6554 6596 1
7209 6554 6597 1
7210 6555 6598 1
7211 6555 6599 1
7212 6555 6600 1
7213 6556 6601 1
7214 6556 6602 1
7215 6556 6603 1
7216 6557 6604 1
7217 6557 6605 1
7218 6557 6606 1
7219 6558 6607 1
7220 6558 6608 1
7221 6558 6609 1
7222 6559 6610 1
7223 6559 6611 1
7224 6559 6612 1
7225 6560 6613 1
7226 6560 6614 1
7227 6560 6615 1
7228 6561 6616 1
7229 6562 6617 1
7230 6562 6618 1
7231 6562 6619 1
7232 6563 6620 1
7233 6563 6621 1
7234 6563 6622 1
7235 6564 6623 1
7236 6565 6624 1
7237 6568 6625 1
7238 6568 6626 1
7239 6568 6627 1
7240 6569 6628 1
7241 6569 6629 1
7242 6569 6630 1
7243 6633 6632 un
7244 6634 6633 un
7245 6635 6634 un
7246 6636 6635 un
7247 6631 6632 un
7248 6631 6636 un
7249 6638 6637 1
7250 6639 6638 un
7251 6640 6639 1
7252 6634 6637 1
7253 6633 6640 1
7254 6642 6641 un
7255 6643 6642 un
7256 6644 6643 un
7257 6639 6641 un
7258 6638 6644 un
7259 6646 6645 un
7260 6647 6646 un
7261 6648 6647 un
7262 6644 6645 un
7263 6643 6648 un
7264 6650 6649 1
7265 6651 6650 1
7266 6652 6651 un
7267 6647 6649 1
7268 6646 6652 un
7269 6654 6653 1
7270 6655 6654 un
7271 6656 6655 1
7272 6650 6653 1
7273 6649 6656 1
7274 6658 6657 un
7275 6659 6658 un
7276 6660 6659 un
7277 6652 6657 un
7278 6651 6660 un
7279 6662 6661 1
7280 6663 6662 un
7281 6664 6663 1
7282 6659 6661 1
7283 6658 6664 1
7284 6666 6665 1
7285 6667 6666 1
7286 6668 6667 un
7287 6663 6665 1
7288 6662 6668 un
7289 6670 6669 un
7290 6671 6670 un
7291 6672 6671 un
7292 6668 6669 un
7293 6667 6672 un
7294 6674 6673 1
7295 6675 6674 1
7296 6676 6675 1
7297 6672 6673 1
7298 6671 6676 1
7299 6678 6677 1
7300 6679 6678 un
7301 6670 6679 un
7302 6676 6677 1
7303 6681 6680 un
7304 6682 6681 un
7305 6683 6682 un
7306 6679 6680 un
7307 6678 6683 un
7308 6636 6684 1
7309 6684 6685 1
7310 6631 6686 1
7311 6635 6687 1
7312 6632 6688 1
7313 6641 6689 1
7314 6642 6690 1
7315 6648 6691 1
7316 6655 6692 1
7317 6654 6693 1
7318 6660 6694 1
7319 6657 6695 1
7320 6664 6696 2
7321 6661 6697 2
7322 6683 6698 1
7323 6682 6699 1
7324 6637 6700 1
7325 6637 6701 1
7326 6640 6702 1
7327 6640 6703 1
7328 6645 6704 1
7329 6653 6705 1
7330 6653 6706 1
7331 6654 6707 1
7332 6655 6708 1
7333 6656 6709 1
7334 6656 6710 1
7335 6665 6711 1
7336 6665 6712 1
7337 6666 6713 1
7338 6666 6714 1
7339 6673 6715 1
7340 6673 6716 1
7341 6674 6717 1
7342 6674 6718 1
7343 6675 6719 1
7344 6675 6720 1
7345 6676 6721 1
7346 6677 6722 1
7347 6677 6723 1
7348 6680 6724 1
7349 6681 6725 1
7350 6684 6726 1
7351 6684 6727 1
7352 6685 6728 1
7353 6685 6729 1
7354 6685 6730 1
7355 6686 6731 1
7356 6686 6732 1
7357 6686 6733 1
7358 6687 6734 1
7359 6687 6735 1
7360 6687 6736 1
7361 6688 6737 1
7362 6688 6738 1
7363 6688 6739 1
7364 6689 6740 1
7365 6689 6741 1
7366 6689 6742 1
7367 6690 6743 1
7368 6690 6744 1
7369 6690 6745 1
7370 6691 6746 1
7371 6692 6747 1
7372 6692 6748 1
7373 6692 6749 1
7374 6693 6750 1
7375 6693 6751 1
7376 6693 6752 1
7377 6694 6753 1
7378 6695 6754 1
7379 6698 6755 1
7380 6698 6756 1
7381 6698 6757 1
7382 6699 6758 1
7383 6699 6759 1
7384 6699 6760 1
7385 6763 6762 un
7386 6764 6763 un
7387 6765 6764 un
7388 6766 6765 un
7389 6761 6762 un
7390 6761 6766 un
7391 6768 6767 1
7392 6769 6768 un
7393 6770 6769 1
7394 6764 6767 1
7395 6763 6770 1
7396 6772 6771 un
7397 6773 6772 un
7398 6774 6773 un
7399 6769 6771 un
7400 6768 6774 un
7401 6776 6775 un
7402 6777 6776 un
7403 6778 6777 un
7404 6774 6775 un
7405 6773 6778 un
7406 6780 6779 1
7407 6781 6780 1
7408 6782 6781 un
7409 6777 6779 1
7410 6776 6782 un
7411 6784 6783 1
7412 6785 6784 un
7413 6786 6785 1
7414 6780 6783 1
7415 6779 6786 1
7416 6788 6787 un
7417 6789 6788 un
7418 6790 6789 un
7419 6782 6787 un
7420 6781 6790 un
7421 6792 6791 1
7422 6793 6792 un
7423 6794 6793 1
7424 6789 6791 1
7425 6788 6794 1
7426 6796 6795 1
7427 6797 6796 1
7428 6798 6797 un
7429 6793 6795 1
7430 6792 6798 un
7431 6800 6799 un
7432 6801 6800 un
7433 6802 6801 un
7434 6798 6799 un
7435 6797 6802 un
7436 6804 6803 1
7437 6805 6804 1
7438 6806 6805 1
7439 6802 6803 1
7440 6801 6806 1
7441 6808 6807 1
7442 6809 6808 un
7443 6800 6809 un
7444 6806 6807 1
7445 6811 6810 un
7446 6812 6811 un
7447 6813 6812 un
7448 6809 6810 un
7449 6808 6813 un
7450 6766 6814 1
7451 6814 6815 1
7452 6761 6816 1
7453 6765 6817 1
7454 6762 6818 1
7455 6771 6819 1
7456 6772 6820 1
7457 6778 6821 1
7458 6785 6822 1
7459 6784 6823 1
7460 6790 6824 1
7461 6787 6825 1
7462 6794 6826 2
7463 6791 6827 2
7464 6813 6828 1
7465 6812 6829 1
7466 6767 6830 1
7467 6767 6831 1
7468 6770 6832 1
7469 6770 6833 1
7470 6775 6834 1
7471 6783 6835 1
7472 6783 6836 1
7473 6784 6837 1
7474 6785 6838 1
7475 6786 6839 1
7476 6786 6840 1
7477 6795 6841 1
7478 6795 6842 1
7479 6796 6843 1
7480 6796 6844 1
7481 6803 6845 1
7482 6803 6846 1
7483 6804 6847 1
7484 6804 6848 1
7485 6805 6849 1
7486 6805 6850 1
7487 6806 6851 1
7488 6807 6852 1
7489 6807 6853 1
7490 6810 6854 1
7491 6811 6855 1
7492 6814 6856 1
7493 6814 6857 1
7494 6815 6858 1
7495 6815 6859 1
7496 6815 6860 1
7497 6816 6861 1
7498 6816 6862 1
7499 6816 6863 1
7500 6817 6864 1
7501 6817 6865 1
7502 6817 6866 1
7503 6818 6867 1
7504 6818 6868 1
7505 6818 6869 1
7506 6819 6870 1
7507 6819 6871 1
7508 6819 6872 1
7509 6820 6873 1
7510 6820 6874 1
7511 6820 6875 1
7512 6821 6876 1
7513 6822 6877 1
7514 6822 6878 1
7515 6822 6879 1
7516 6823 6880 1
7517 6823 6881 1
7518 6823 6882 1
7519 6824 6883 1
7520 6825 6884 1
7521 6828 6885 1
7522 6828 6886 1
7523 6828 6887 1
7524 6829 6888 1
7525 6829 6889 1
7526 6829 6890 1
7527 6893 6892 un
7528 6894 6893 un
7529 6895 6894 un
7530 6896 6895 un
7531 6891 6892 un
7532 6891 6896 un
7533 6898 6897 1
7534 6899 6898 un
7535 6900 6899 1
7536 6894 6897 1
7537 6893 6900 1
7538 6902 6901 un
7539 6903 6902 un
7540 6904 6903 un
7541 6899 6901 un
7542 6898 6904 un
7543 6906 6905 un
7544 6907 6906 un
7545 6908 6907 un
7546 6904 6905 un
7547 6903 6908 un
7548 6910 6909 1
7549 6911 6910 1
7550 6912 6911 un
7551 6907 6909 1
7552 6906 6912 un
7553 6914 6913 1
7554 6915 6914 un
7555 6916 6915 1
7556 6910 6913 1
7557 6909 6916 1
7558 6918 6917 un
7559 6919 6918 un
7560 6920 6919 un
7561 6912 6917 un
7562 6911 6920 un
7563 6922 6921 1
7564 6923 6922 un
7565 6924 6923 1
7566 6919 6921 1
7567 6918 6924 1
7568 6926 6925 1
7569 6927 6926 1
7570 6928 6927 un
7571 6923 6925 1
7572 6922 6928 un
7573 6930 6929 un
7574 6931 6930 un
7575 6932 6931 un
7576 6928 6929 un
7577 6927 6932 un
7578 6934 6933 1
7579 6935 6934 1
7580 6936 6935 1
7581 6932 6933 1
7582 6931 6936 1
7583 6938 6937 1
7584 6939 6938 un
7585 6930 6939 un
7586 6936 6937 1
7587 6941 6940 un
7588 6942 6941 un
7589 6943 6942 un
7590 6939 6940 un
7591 6938 6943 un
7592 6896 6944 1
7593 6944 6945 1
7594 6891 6946 1
7595 6895 6947 1
7596 6892 6948 1
7597 6901 6949 1
7598 6902 6950 1
7599 6908 6951 1
7600 6915 6952 1
7601 6914 6953 1
7602 6920 6954 1
7603 6917 6955 1
7604 6924 6956 2
7605 6921 6957 2
7606 6943 6958 1
7607 6942 6959 1
7608 6897 6960 1
7609 6897 6961 1
7610 6900 6962 1
7611 6900 6963 1
7612 6905 6964 1
7613 6913 6965 1
7614 6913 6966 1
7615 6914 6967 1
7616 6915 6968 1
7617 6916 6969 1
7618 6916 6970 1
7619 6925 6971 1
7620 6925 6972 1
7621 6926 6973 1
7622 6926 6974 1
7623 6933 6975 1
7624 6933 6976 1
7625 6934 6977 1
7626 6934 6978 1
7627 6935 6979 1
7628 6935 6980 1
7629 6936 6981 1
7630 6937 6982 1
7631 6937 6983 1
7632 6940 6984 1
7633 6941 6985 1
7634 6944 6986 1
7635 6944 6987 1
7636 6945 6988 1
7637 6945 6989 1
7638 6945 6990 1
7639 6946 6991 1
7640 6946 6992 1
7641 6946 6993 1
7642 6947 6994 1
7643 6947 6995 1
7644 6947 6996 1
7645 6948 6997 1
7646 6948 6998 1
7647 6948 6999 1
7648 6949 7000 1
7649 6949 7001 1
7650 6949 7002 1
7651 6950 7003 1
7652 6950 7004 1
7653 6950 7005 1
7654 6951 7006 1
7655 6952 7007 1
7656 6952 7008 1
7657 6952 7009 1
7658 6953 7010 1
7659 6953 7011 1
7660 6953 7012 1
7661 6954 7013 1
7662 6955 7014 1
7663 6958 7015 1
7664 6958 7016 1
7665 6958 7017 1
7666 6959 7018 1
7667 6959 7019 1
7668 6959 7020 1
7669 7023 7022 un
7670 7024 7023 un
7671 7025 7024 un
7672 7026 7025 un
7673 7021 7022 un
7674 7021 7026 un
7675 7028 7027 1
7676 7029 7028 un
7677 7030 7029 1
7678 7024 7027 1
7679 7023 7030 1
7680 7032 7031 un
7681 7033 7032 un
7682 7034 7033 un
7683 7029 7031 un
7684 7028 7034 un
7685 7036 7035 un
7686 7037 7036 un
7687 7038 7037 un
7688 7034 7035 un
7689 7033 7038 un
7690 7040 7039 1
7691 7041 7040 1
7692 7042 7041 un
7693 7037 7039 1
7694 7036 7042 un
7695 7044 7043 1
7696 7045 7044 un
7697 7046 7045 1
7698 7040 7043 1
7699 7039 7046 1
7700 7048 7047 un
7701 7049 7048 un
7702 7050 7049 un
7703 7042 7047 un
7704 7041 7050 un
7705 7052 7051 1
7706 7053 7052 un
7707 7054 7053 1
7708 7049 7051 1
7709 7048 7054 1
7710 7056 7055 1
7711 7057 7056 1
7712 7058 7057 un
7713 7053 7055 1
7714 7052 7058 un
7715 7060 7059 un
7716 7061 7060 un
7717 7062 7061 un
7718 7058 7059 un
7719 7057 7062 un
7720 7064 7063 1
7721 7065 7064 1
7722 7066 7065 1
7723 7062 7063 1
7724 7061 7066 1
7725 7068 7067 1
7726 7069 7068 un
7727 7060 7069 un
7728 7066 7067 1
7729 7071 7070 un
7730 7072 7071 un
7731 7073 7072 un
7732 7069 7070 un
7733 7068 7073 un
7734 7026 7074 1
7735 7074 7075 1
7736 7021 7076 1
7737 7025 7077 1
7738 7022 7078 1
7739 7031 7079 1
7740 7032 7080 1
7741 7038 7081 1
7742 7045 7082 1
7743 7044 7083 1
7744 7050 7084 1
7745 7047 7085 1
7746 7054 7086 2
7747 7051 7087 2
7748 7073 7088 1
7749 7072 7089 1
7750 7027 7090 1
7751 7027 7091 1
7752 7030 7092 1
7753 7030 7093 1
7754 7035 7094 1
7755 7043 7095 1
7756 7043 7096 1
7757 7044 7097 1
7758 7045 7098 1
7759 7046 7099 1
7760 7046 7100 1
7761 7055 7101 1
7762 7055 7102 1
7763 7056 7103 1
7764 7056 7104 1
7765 7063 7105 1
7766 7063 7106 1
7767 7064 7107 1
7768 7064 7108 1
7769 7065 7109 1
7770 7065 7110 1
7771 7066 7111 1
7772 7067 7112 1
7773 7067 7113 1
7774 7070 7114 1
7775 7071 7115 1
7776 7074 7116 1
7777 7074 7117 1
7778 7075 7118 1
7779 7075 7119 1
7780 7075 7120 1
7781 7076 7121 1
7782 7076 7122 1
7783 7076 7123 1
7784 7077 7124 1
7785 7077 7125 1
7786 7077 7126 1
7787 7078 7127 1
7788 7078 7128 1
7789 7078 7129 1
7790 7079 7130 1
7791 7079 7131 1
7792 7079 7132 1
7793 7080 7133 1
7794 7080 7134 1
7795 7080 7135 1
7796 7081 7136 1
7797 7082 7137 1
7798 7082 7138 1
7799 7082 7139 1
7800 7083 7140 1
7801 7083 7141 1
7802 7083 7142 1
7803 7084 7143 1
7804 7085 7144 1
7805 7088 7145 1
7806 7088 7146 1
7807 7088 7147 1
7808 7089 7148 1
7809 7089 7149 1
7810 7089 7150 1
7811 7153 7152 un
7812 7154 7153 un
7813 7155 7154 un
7814 7156 7155 un
7815 7151 7152 un
7816 7151 7156 un
7817 7158 7157 1
7818 7159 7158 un
7819 7160 7159 1
7820 7154 7157 1
7821 7153 7160 1
7822 7162 7161 un
7823 7163 7162 un
7824 7164 7163 un
7825 7159 7161 un
7826 7158 7164 un
7827 7166 7165 un
7828 7167 7166 un
7829 7168 7167 un
7830 7164 7165 un
7831 7163 7168 un
7832 7170 7169 1
7833 7171 7170 1
7834 7172 7171 un
7835 7167 7169 1
7836 7166 7172 un
7837 7174 7173 1
7838 7175 7174 un
7839 7176 7175 1
7840 7170 7173 1
7841 7169 7176 1
7842 7178 7177 un
7843 7179 7178 un
7844 7180 7179 un
7845 7172 7177 un
7846 7171 7180 un
7847 7182 7181 1
7848 7183 7182 un
7849 7184 7183 1
7850 7179 7181 1
7851 7178 7184 1
7852 7186 7185 1
7853 7187 7186 1
7854 7188 7187 un
7855 7183 7185 1
7856 7182 7188 un
7857 7190 7189 un
7858 7191 7190 un
7859 7192 7191 un
7860 7188 7189 un
7861 7187 7192 un
7862 7194 7193 1
7863 7195 7194 1
7864 7196 7195 1
7865 7192 7193 1
7866 7191 7196 1
7867 7198 7197 1
7868 7199 7198 un
7869 7190 7199 un
7870 7196 7197 1
7871 7201 7200 un
7872 7202 7201 un
7873 7203 7202 un
7874 7199 7200 un
7875 7198 7203 un
7876 7156 7204 1
7877 7204 7205 1
7878 7151 7206 1
7879 7155 7207 1
7880 7152 7208 1
7881 7161 7209 1
7882 7162 7210 1
7883 7168 7211 1
7884 7175 7212 1
7885 7174 7213 1
7886 7180 7214 1
7887 7177 7215 1
7888 7184 7216 2
7889 7181 7217 2
7890 7203 7218 1
7891 7202 7219 1
7892 7157 7220 1
7893 7157 7221 1
7894 7160 7222 1
7895 7160 7223 1
7896 7165 7224 1
7897 7173 7225 1
7898 7173 7226 1
7899 7174 7227 1
7900 7175 7228 1
7901 7176 7229 1
7902 7176 7230 1
7903 7185 7231 1
7904 7185 7232 1
7905 7186 7233 1
7906 7186 7234 1
7907 7193 7235 1
7908 7193 7236 1
7909 7194 7237 1
7910 7194 7238 1
7911 7195 7239 1
7912 7195 7240 1
7913 7196 7241 1
7914 7197 7242 1
7915 7197 7243 1
7916 7200 7244 1
7917 7201 7245 1
7918 7204 7246 1
7919 7204 7247 1
7920 7205 7248 1
7921 7205 7249 1
7922 7205 7250 1
7923 7206 7251 1
7924 7206 7252 1
7925 7206 7253 1
7926 7207 7254 1
7927 7207 7255 1
7928 7207 7256 1
7929 7208 7257 1
7930 7208 7258 1
7931 7208 7259 1
7932 7209 7260 1
7933 7209 7261 1
7934 7209 7262 1
7935 7210 7263 1
7936 7210 7264 1
7937 7210 7265 1
7938 7211 7266 1
7939 7212 7267 1
7940 7212 7268 1
7941 7212 7269 1
7942 7213 7270 1
7943 7213 7271 1
7944 7213 7272 1
7945 7214 7273 1
7946 7215 7274 1
7947 7218 7275 1
7948 7218 7276 1
7949 7218 7277 1
7950 7219 7278 1
7951 7219 7279 1
7952 7219 7280 1
7953 7283 7282 un
7954 7284 7283 un
7955 7285 7284 un
7956 7286 7285 un
7957 7281 7282 un
7958 7281 7286 un
7959 7288 7287 1
7960 7289 7288 un
7961 7290 7289 1
7962 7284 7287 1
7963 7283 7290 1
7964 7292 7291 un
7965 7293 7292 un
7966 7294 7293 un
7967 7289 7291 un
7968 7288 7294 un
7969 7296 7295 un
7970 7297 7296 un
7971 7298 7297 un
7972 7294 7295 un
7973 7293 7298 un
7974 7300 7299 1
7975 7301 7300 1
7976 7302 7301 un
7977 7297 7299 1
7978 7296 7302 un
7979 7304 7303 1
7980 7305 7304 un
7981 7306 7305 1
7982 7300 7303 1
7983 7299 7306 1
7984 7308 7307 un
7985 7309 7308 un
7986 7310 7309 un
7987 7302 7307 un
7988 7301 7310 un
7989 7312 7311 1
7990 7313 7312 un
7991 7314 7313 1
7992 7309 7311 1
7993 7308 7314 1
7994 7316 7315 1
7995 7317 7316 1
7996 7318 7317 un
7997 7313 7315 1
7998 7312 7318 un
7999 7320 7319 un
8000 7321 7320 un
8001 7322 7321 un
8002 7318 7319 un
8003 7317 7322 un
8004 7324 7323 1
8005 7325 7324 1
8006 7326 7325 1
8007 7322 7323 1
8008 7321 7326 1
8009 7328 7327 1
8010 7329 7328 un
8011 7320 7329 un
8012 7326 7327 1
8013 7331 7330 un
8014 7332 7331 un
8015 7333 7332 un
8016 7329 7330 un
8017 7328 7333 un
8018 7286 7334 1
8019 7334 7335 1
8020 7281 7336 1
8021 7285 7337 1
8022 7282 7338 1
8023 7291 7339 1
8024 7292 7340 1
8025 7298 7341 1
8026 7305 7342 1
8027 7304 7343 1
8028 7310 7344 1
8029 7307 7345 1
8030 7314 7346 2
8031 7311 7347 2
8032 7333 7348 1
8033 7332 7349 1
8034 7287 7350 1
8035 7287 7351 1
8036 7290 7352 1
8037 7290 7353 1
8038 7295 7354 1
8039 7303 7355 1
8040 7303 7356 1
8041 7304 7357 1
8042 7305 7358 1
8043 7306 7359 1
8044 7306 7360 1
8045 7315 7361 1
8046 7315 7362 1
8047 7316 7363 1
8048 7316 7364 1
8049 7323 7365 1
8050 7323 7366 1
8051 7324 7367 1
8052 7324 7368 1
8053 7325 7369 1
8054 7325 7370 1
8055 7326 7371 1
8056 7327 7372 1
8057 7327 7373 1
8058 7330 7374 1
8059 7331 7375 1
8060 7334 7376 1
8061 7334 7377 1
8062 7335 7378 1
8063 7335 7379 1
8064 7335 7380 1
8065 7336 7381 1
8066 7336 7382 1
8067 7336 7383 1
8068 7337 7384 1
8069 7337 7385 1
8070 7337 7386 1
8071 7338 7387 1
8072 7338 7388 1
8073 7338 7389 1
8074 7339 7390 1
8075 7339 7391 1
8076 7339 7392 1
8077 7340 7393 1
8078 7340 7394 1
8079 7340 7395 1
8080 7341 7396 1
8081 7342 7397 1
8082 7342 7398 1
8083 7342 7399 1
8084 7343 7400 1
8085 7343 7401 1
8086 7343 7402 1
8087 7344 7403 1
8088 7345 7404 1
8089 7348 7405 1
8090 7348 7406 1
8091 7348 7407 1
8092 7349 7408 1
8093 7349 7409 1
8094 7349 7410 1
8095 7413 7412 un
8096 7414 7413 un
8097 7415 7414 un
8098 7416 7415 un
8099 7411 7412 un
8100 7411 7416 un
8101 7418 7417 1
8102 7419 7418 un
8103 7420 7419 1
8104 7414 7417 1
8105 7413 7420 1
8106 7422 7421 un
8107 7423 7422 un
8108 7424 7423 un
8109 7419 7421 un
8110 7418 7424 un
8111 7426 7425 un
8112 7427 7426 un
8113 7428 7427 un
8114 7424 7425 un
8115 7423 7428 un
8116 7430 7429 1
8117 7431 7430 1
8118 7432 7431 un
8119 7427 7429 1
8120 7426 7432 un
8121 7434 7433 1
8122 7435 7434 un
8123 7436 7435 1
8124 7430 7433 1
8125 7429 7436 1
8126 7438 7437 un
8127 7439 7438 un
8128 7440 7439 un
8129 7432 7437 un
8130 7431 7440 un
8131 7442 7441 1
8132 7443 7442 un
8133 7444 7443 1
8134 7439 7441 1
8135 7438 7444 1
8136 7446 7445 1
8137 7447 7446 1
8138 7448 7447 un
8139 7443 7445 1
8140 7442 7448 un
8141 7450 7449 un
8142 7451 7450 un
8143 7452 7451 un
8144 7448 7449 un
8145 7447 7452 un
8146 7454 7453 1
8147 7455 7454 1
8148 7456 7455 1
8149 7452 7453 1
8150 7451 7456 1
8151 7458 7457 1
8152 7459 7458 un
8153 7450 7459 un
8154 7456 7457 1
8155 7461 7460 un
8156 7462 7461 un
8157 7463 7462 un
8158 7459 7460 un
8159 7458 7463 un
8160 7416 7464 1
8161 7464 7465 1
8162 7411 7466 1
8163 7415 7467 1
8164 7412 7468 1
8165 7421 7469 1
8166 7422 7470 1
8167 7428 7471 1
8168 7435 7472 1
8169 7434 7473 1
8170 7440 7474 1
8171 7437 7475 1
8172 7444 7476 2
8173 7441 7477 2
8174 7463 7478 1
8175 7462 7479 1
8176 7417 7480 1
8177 7417 7481 1
8178 7420 7482 1
8179 7420 7483 1
8180 7425 7484 1
8181 7433 7485 1
8182 7433 7486 1
8183 7434 7487 1
8184 7435 7488 1
8185 7436 7489 1
8186 7436 7490 1
8187 7445 7491 1
8188 7445 7492 1
8189 7446 7493 1
8190 7446 7494 1
8191 7453 7495 1
8192 7453 7496 1
8193 7454 7497 1
8194 7454 7498 1
8195 7455 7499 1
8196 7455 7500 1
8197 7456 7501 1
8198 7457 7502 1
8199 7457 7503 1
8200 7460 7504 1
8201 7461 7505 1
8202 7464 7506 1
8203 7464 7507 1
8204 7465 7508 1
8205 7465 7509 1
8206 7465 7510 1
8207 7466 7511 1
8208 7466 7512 1
8209 7466 7513 1
8210 7467 7514 1
8211 7467 7515 1
8212 7467 7516 1
8213 7468 7517 1
8214 7468 7518 1
8215 7468 7519 1
8216 7469 7520 1
8217 7469 7521 1
8218 7469 7522 1
8219 7470 7523 1
8220 7470 7524 1
8221 7470 7525 1
8222 7471 7526 1
8223 7472 7527 1
8224 7472 7528 1
8225 7472 7529 1
8226 7473 7530 1
8227 7473 7531 1
8228 7473 7532 1
8229 7474 7533 1
8230 7475 7534 1
8231 7478 7535 1
8232 7478 7536 1
8233 7478 7537 1
8234 7479 7538 1
8235 7479 7539 1
8236 7479 7540 1
8237 7543 7542 un
8238 7544 7543 un
8239 7545 7544 un
8240 7546 7545 un
8241 7541 7542 un
8242 7541 7546 un
8243 7548 7547 1
8244 7549 7548 un
8245 7550 7549 1
8246 7544 7547 1
8247 7543 7550 1
8248 7552 7551 un
8249 7553 7552 un
8250 7554 7553 un
8251 7549 7551 un
8252 7548 7554 un
8253 7556 7555 un
8254 7557 7556 un
8255 7558 7557 un
8256 7554 7555 un
8257 7553 7558 un
8258 7560 7559 1
8259 7561 7560 1
8260 7562 7561 un
8261 7557 7559 1
8262 7556 7562 un
8263 7564 7563 1
8264 7565 7564 un
8265 7566 7565 1
8266 7560 7563 1
8267 7559 7566 1
8268 7568 7567 un
8269 7569 7568 un
8270 7570 7569 un
8271 7562 7567 un
8272 7561 7570 un
8273 7572 7571 1
8274 7573 7572 un
8275 7574 7573 1
8276 7569 7571 1
8277 7568 7574 1
8278 7576 7575 1
8279 7577 7576 1
8280 7578 7577 un
8281 7573 7575 1
8282 7572 7578 un
8283 7580 7579 un
8284 7581 7580 un
8285 7582 7581 un
8286 7578 7579 un
8287 7577 7582 un
8288 7584 7583 1
8289 7585 7584 1
8290 7586 7585 1
8291 7582 7583 1
8292 7581 7586 1
8293 7588 7587 1
8294 7589 7588 un
8295 7580 7589 un
8296 7586 7587 1
8297 7591 7590 un
8298 7592 7591 un
8299 7593 7592 un
8300 7589 7590 un
8301 7588 7593 un
8302 7546 7594 1
8303 7594 7595 1
8304 7541 7596 1
8305 7545 7597 1
8306 7542 7598 1
8307 7551 7599 1
8308 7552 7600 1
8309 7558 7601 1
8310 7565 7602 1
8311 7564 7603 1
8312 7570 7604 1
8313 7567 7605 1
8314 7574 7606 2
8315 7571 7607 2
8316 7593 7608 1
8317 7592 7609 1
8318 7547 7610 1
8319 7547 7611 1
8320 7550 7612 1
8321 7550 7613 1
8322 7555 7614 1
8323 7563 7615 1
8324 7563 7616 1
8325 7564 7617 1
8326 7565 7618 1
8327 7566 7619 1
8328 7566 7620 1
8329 7575 7621 1
8330 7575 7622 1
8331 7576 7623 1
8332 7576 7624 1
8333 7583 7625 1
8334 7583 7626 1
8335 7584 7627 1
8336 7584 7628 1
8337 7585 7629 1
8338 7585 7630 1
8339 7586 7631 1
8340 7587 7632 1
8341 7587 7633 1
8342 7590 7634 1
8343 7591 7635 1
8344 7594 7636 1
8345 7594 7637 1
8346 7595 7638 1
8347 7595 7639 1
8348 7595 7640 1
8349 7596 7641 1
8350 7596 7642 1
8351 7596 7643 1
8352 7597 7644 1
8353 7597 7645 1
8354 7597 7646 1
8355 7598 7647 1
8356 7598 7648 1
8357 7598 7649 1
8358 7599 7650 1
8359 7599 7651 1
8360 7599 7652 1
8361 7600 7653 1
8362 7600 7654 1
8363 7600 7655 1
8364 7601 7656 1
8365 7602 7657 1
8366 7602 7658 1
8367 7602 7659 1
8368 7603 7660 1
8369 7603 7661 1
8370 7603 7662 1
8371 7604 7663 1
8372 7605 7664 1
8373 7608 7665 1
8374 7608 7666 1
8375 7608 7667 1
8376 7609 7668 1
8377 7609 7669 1
8378 7609 7670 1
8379 7673 7672 un
8380 7674 7673 un
8381 7675 7674 un
8382 7676 7675 un
8383 7671 7672 un
8384 7671 7676 un
8385 7678 7677 1
8386 7679 7678 un
8387 7680 7679 1
8388 7674 7677 1
8389 7673 7680 1
8390 7682 7681 un
8391 7683 7682 un
8392 7684 7683 un
8393 7679 7681 un
8394 7678 7684 un
8395 7686 7685 un
8396 7687 7686 un
8397 7688 7687 un
8398 7684 7685 un
8399 7683 7688 un
8400 7690 7689 1
8401 7691 7690 1
8402 7692 7691 un
8403 7687 7689 1
8404 7686 7692 un
8405 7694 7693 1
8406 7695 7694 un
8407 7696 7695 1
8408 7690 7693 1
8409 7689 7696 1
8410 7698 7697 un
8411 7699 7698 un
8412 7700 7699 un
8413 7692 7697 un
8414 7691 7700 un
8415 7702 7701 1
8416 7703 7702 un
8417 7704 7703 1
8418 7699 7701 1
8419 7698 7704 1
8420 7706 7705 1
8421 7707 7706 1
8422 7708 7707 un
8423 7703 7705 1
8424 7702 7708 un
8425 7710 7709 un
8426 7711 7710 un
8427 7712 7711 un
8428 7708 7709 un
8429 7707 7712 un
8430 7714 7713 1
8431 7715 7714 1
8432 7716 7715 1
8433 7712 7713 1
8434 7711 7716 1
8435 7718 7717 1
8436 7719 7718 un
8437 7710 7719 un
8438 7716 7717 1
8439 7721 7720 un
8440 7722 7721 un
8441 7723 7722 un
8442 7719 7720 un
8443 7718 7723 un
8444 7676 7724 1
8445 7724 7725 1
8446 7671 7726 1
8447 7675 7727 1
8448 7672 7728 1
8449 7681 7729 1
8450 7682 7730 1
8451 7688 7731 1
8452 7695 7732 1
8453 7694 7733 1
8454 7700 7734 1
8455 7697 7735 1
8456 7704 7736 2
8457 7701 7737 2
8458 7723 7738 1
8459 7722 7739 1
8460 7677 7740 1
8461 7677 7741 1
8462 7680 7742 1
8463 7680 7743 1
8464 7685 7744 1
8465 7693 7745 1
8466 7693 7746 1
8467 7694 7747 1
8468 7695 7748 1
8469 7696 7749 1
8470 7696 7750 1
8471 7705 7751 1
8472 7705 7752 1
8473 7706 7753 1
8474 7706 7754 1
8475 7713 7755 1
8476 7713 7756 1
8477 7714 7757 1
8478 7714 7758 1
8479 7715 7759 1
8480 7715 7760 1
8481 7716 7761 1
8482 7717 7762 1
8483 7717 7763 1
8484 7720 7764 1
8485 7721 7765 1
8486 7724 7766 1
8487 7724 7767 1
8488 7725 7768 1
8489 7725 7769 1
8490 7725 7770 1
8491 7726 7771 1
8492 7726 7772 1
8493 7726 7773 1
8494 7727 7774 1
8495 7727 7775 1
8496 7727 7776 1
8497 7728 7777 1
8498 7728 7778 1
8499 7728 7779 1
8500 7729 7780 1
8501 7729 7781 1
8502 7729 7782 1
8503 7730 7783 1
8504 7730 7784 1
8505 7730 7785 1
8506 7731 7786 1
8507 7732 7787 1
8508 7732 7788 1
8509 7732 7789 1
8510 7733 7790 1
8511 7733 7791 1
8512 7733 7792 1
8513 7734 7793 1
8514 7735 7794 1
8515 7738 7795 1
8516 7738 7796 1
8517 7738 7797 1
8518 7739 7798 1
8519 7739 7799 1
8520 7739 7800 1
8521 7803 7802 un
8522 7804 7803 un
8523 7805 7804 un
8524 7806 7805 un
8525 7801 7802 un
8526 7801 7806 un
8527 7808 7807 1
8528 7809 7808 un
8529 7810 7809 1
8530 7804 7807 1
8531 7803 7810 1
8532 7812 7811 un
8533 7813 7812 un
8534 7814 7813 un
8535 7809 7811 un
8536 7808 7814 un
8537 7816 7815 un
8538 7817 7816 un
8539 7818 7817 un
8540 7814 7815 un
8541 7813 7818 un
8542 7820 7819 1
8543 7821 7820 1
8544 7822 7821 un
8545 7817 7819 1
8546 7816 7822 un
8547 7824 7823 1
8548 7825 7824 un
8549 7826 7825 1
8550 7820 7823 1
8551 7819 7826 1
8552 7828 7827 un
8553 7829 7828 un
8554 7830 7829 un
8555 7822 7827 un
8556 7821 7830 un
8557 7832 7831 1
8558 7833 7832 un
8559 7834 7833 1
8560 7829 7831 1
8561 7828 7834 1
8562 7836 7835 1
8563 7837 7836 1
8564 7838 7837 un
8565 7833 7835 1
8566 7832 7838 un
8567 7840 7839 un
8568 7841 7840 un
8569 7842 7841 un
8570 7838 7839 un
8571 7837 7842 un
8572 7844 7843 1
8573 7845 7844 1
8574 7846 7845 1
8575 7842 7843 1
8576 7841 7846 1
8577 7848 7847 1
8578 7849 7848 un
8579 7840 7849 un
8580 7846 7847 1
8581 7851 7850 un
8582 7852 7851 un
8583 7853 7852 un
8584 7849 7850 un
8585 7848 7853 un
8586 7806 7854 1
8587 7854 7855 1
8588 7801 7856 1
8589 7805 7857 1
8590 7802 7858 1
8591 7811 7859 1
8592 7812 7860 1
8593 7818 7861 1
8594 7825 7862 1
8595 7824 7863 1
8596 7830 7864 1
8597 7827 7865 1
8598 7834 7866 2
8599 7831 7867 2
8600 7853 7868 1
8601 7852 7869 1
8602 7807 7870 1
8603 7807 7871 1
8604 7810 7872 1
8605 7810 7873 1
8606 7815 7874 1
8607 7823 7875 1
8608 7823 7876 1
8609 7824 7877 1
8610 7825 7878 1
8611 7826 7879 1
8612 7826 7880 1
8613 7835 7881 1
8614 7835 7882 1
8615 7836 7883 1
8616 7836 7884 1
8617 7843 7885 1
8618 7843 7886 1
8619 7844 7887 1
8620 7844 7888 1
8621 7845 7889 1
8622 7845 7890 1
8623 7846 7891 1
8624 7847 7892 1
8625 7847 7893 1
8626 7850 7894 1
8627 7851 7895 1
8628 7854 7896 1
8629 7854 7897 1
8630 7855 7898 1
8631 7855 7899 1
8632 7855 7900 1
8633 7856 7901 1
8634 7856 7902 1
8635 7856 7903 1
8636 7857 7904 1
8637 7857 7905 1
8638 7857 7906 1
8639 7858 7907 1
8640 7858 7908 1
8641 7858 7909 1
8642 7859 7910 1
8643 7859 7911 1
8644 7859 7912 1
8645 7860 7913 1
8646 7860 7914 1
8647 7860 7915 1
8648 7861 7916 1
8649 7862 7917 1
8650 7862 7918 1
8651 7862 7919 1
8652 7863 7920 1
8653 7863 7921 1
8654 7863 7922 1
8655 7864 7923 1
8656 7865 7924 1
8657 7868 7925 1
8658 7868 7926 1
8659 7868 7927 1
8660 7869 7928 1
8661 7869 7929 1
8662 7869 7930 1
8663 7933 7932 un
8664 7934 7933 un
8665 7935 7934 un
8666 7936 7935 un
8667 7931 7932 un
8668 7931 7936 un
8669 7938 7937 1
8670 7939 7938 un
8671 7940 7939 1
8672 7934 7937 1
8673 7933 7940 1
8674 7942 7941 un
8675 7943 7942 un
8676 7944 7943 un
8677 7939 7941 un
8678 7938 7944 un
8679 7946 7945 un
8680 7947 7946 un
8681 7948 7947 un
8682 7944 7945 un
8683 7943 7948 un
8684 7950 7949 1
8685 7951 7950 1
8686 7952 7951 un
8687 7947 7949 1
8688 7946 7952 un
8689 7954 7953 1
8690 7955 7954 un
8691 7956 7955 1
8692 7950 7953 1
8693 7949 7956 1
8694 7958 7957 un
8695 7959 7958 un
8696 7960 7959 un
8697 7952 7957 un
8698 7951 7960 un
8699 7962 7961 1
8700 7963 7962 un
8701 7964 7963 1
8702 7959 7961 1
8703 7958 7964 1
8704 7966 7965 1
8705 7967 7966 1
8706 7968 7967 un
8707 7963 7965 1
8708 7962 7968 un
8709 7970 7969 un
8710 7971 7970 un
8711 7972 7971 un
8712 7968 7969 un
8713 7967 7972 un
8714 7974 7973 1
8715 7975 7974 1
8716 7976 7975 1
8717 7972 7973 1
8718 7971 7976 1
8719 7978 7977 1
8720 7979 7978 un
8721 7970 7979 un
8722 7976 7977 1
8723 7981 7980 un
8724 7982 7981 un
8725 7983 7982 un
8726 7979 7980 un
8727 7978 7983 un
8728 7936 7984 1
8729 7984 7985 1
8730 7931 7986 1
8731 7935 7987 1
8732 7932 7988 1
8733 7941 7989 1
8734 7942 7990 1
8735 7948 7991 1
8736 7955 7992 1
8737 7954 7993 1
8738 7960 7994 1
8739 7957 7995 1
8740 7964 7996 2
8741 7961 7997 2
8742 7983 7998 1
8743 7982 7999 1
8744 7937 8000 1
8745 7937 8001 1
8746 7940 8002 1
8747 7940 8003 1
8748 7945 8004 1
8749 7953 8005 1
8750 7953 8006 1
8751 7954 8007 1
8752 7955 8008 1
8753 7956 8009 1
8754 7956 8010 1
8755 7965 8011 1
8756 7965 8012 1
8757 7966 8013 1
8758 7966 8014 1
8759 7973 8015 1
8760 7973 8016 1
8761 7974 8017 1
8762 7974 8018 1
8763 7975 8019 1
8764 7975 8020 1
8765 7976 8021 1
8766 7977 8022 1
8767 7977 8023 1
8768 7980 8024 1
8769 7981 8025 1
8770 7984 8026 1
8771 7984 8027 1
8772 7985 8028 1
8773 7985 8029 1
8774 7985 8030 1
8775 7986 8031 1
8776 7986 8032 1
8777 7986 8033 1
8778 7987 8034 1
8779 7987 8035 1
8780 7987 8036 1
8781 7988 8037 1
8782 7988 8038 1
8783 7988 8039 1
8784 7989 8040 1
8785 7989 8041 1
8786 7989 8042 1
8787 7990 8043 1
8788 7990 8044 1
8789 7990 8045 1
8790 7991 8046 1
8791 7992 8047 1
8792 7992 8048 1
8793 7992 8049 1
8794 7993 8050 1
8795 7993 8051 1
8796 7993 8052 1
8797 7994 8053 1
8798 7995 8054 1
8799 7998 8055 1
8800 7998 8056 1
8801 7998 8057 1
8802 7999 8058 1
8803 7999 8059 1
8804 7999 8060 1
8805 8063 8062 un
8806 8064 8063 un
8807 8065 8064 un
8808 8066 8065 un
8809 8061 8062 un
8810 8061 8066 un
8811 8068 8067 1
8812 8069 8068 un
8813 8070 8069 1
8814 8064 8067 1
8815 8063 8070 1
8816 8072 8071 un
8817 8073 8072 un
8818 8074 8073 un
8819 8069 8071 un
8820 8068 8074 un
8821 8076 8075 un
8822 8077 8076 un
8823 8078 8077 un
8824 8074 8075 un
8825 8073 8078 un
8826 8080 8079 1
8827 8081 8080 1
8828 8082 8081 un
8829 8077 8079 1
8830 8076 8082 un
8831 8084 8083 1
8832 8085 8084 un
8833 8086 8085 1
8834 8080 8083 1
8835 8079 8086 1
8836 8088 8087 un
8837 8089 8088 un
8838 8090 8089 un
8839 8082 8087 un
8840 8081 8090 un
8841 8092 8091 1
8842 8093 8092 un
8843 8094 8093 1
8844 8089 8091 1
8845 8088 8094 1
8846 8096 8095 1
8847 8097 8096 1
8848 8098 8097 un
8849 8093 8095 1
8850 8092 8098 un
8851 8100 8099 un
8852 8101 8100 un
8853 8102 8101 un
8854 8098 8099 un
8855 8097 8102 un
8856 8104 8103 1
8857 8105 8104 1
8858 8106 8105 1
8859 8102 8103 1
8860 8101 8106 1
8861 8108 8107 1
8862 8109 8108 un
8863 8100 8109 un
8864 8106 8107 1
8865 8111 8110 un
8866 8112 8111 un
8867 8113 8112 un
8868 8109 8110 un
8869 8108 8113 un
8870 8066 8114 1
8871 8114 8115 1
8872 8061 8116 1
8873 8065 8117 1
8874 8062 8118 1
8875 8071 8119 1
8876 8072 8120 1
8877 8078 8121 1
8878 8085 8122 1
8879 8084 8123 1
8880 8090 8124 1
8881 8087 8125 1
8882 8094 8126 2
8883 8091 8127 2
8884 8113 8128 1
8885 8112 8129 1
8886 8067 8130 1
8887 8067 8131 1
8888 8070 8132 1
8889 8070 8133 1
8890 8075 8134 1
8891 8083 8135 1
8892 8083 8136 1
8893 8084 8137 1
8894 8085 8138 1
8895 8086 8139 1
8896 8086 8140 1
8897 8095 8141 1
8898 8095 8142 1
8899 8096 8143 1
8900 8096 8144 1
8901 8103 8145 1
8902 8103 8146 1
8903 8104 8147 1
8904 8104 8148 1
8905 8105 8149 1
8906 8105 8150 1
8907 8106 8151 1
8908 8107 8152 1
8909 8107 8153 1
8910 8110 8154 1
8911 8111 8155 1
8912 8114 8156 1
8913 8114 8157 1
8914 8115 8158 1
8915 8115 8159 1
8916 8115 8160 1
8917 8116 8161 1
8918 8116 8162 1
8919 8116 8163 1
8920 8117 8164 1
8921 8117 8165 1
8922 8117 8166 1
8923 8118 8167 1
8924 8118 8168 1
8925 8118 8169 1
8926 8119 8170 1
8927 8119 8171 1
8928 8119 8172 1
8929 8120 8173 1
8930 8120 8174 1
8931 8120 8175 1
8932 8121 8176 1
8933 8122 8177 1
8934 8122 8178 1
8935 8122 8179 1
8936 8123 8180 1
8937 8123 8181 1
8938 8123 8182 1
8939 8124 8183 1
8940 8125 8184 1
8941 8128 8185 1
8942 8128 8186 1
8943 8128 8187 1
8944 8129 8188 1
8945 8129 8189 1
8946 8129 8190 1
8947 8193 8192 un
8948 8194 8193 un
8949 8195 8194 un
8950 8196 8195 un
8951 8191 8192 un
8952 8191 8196 un
8953 8198 8197 1
8954 8199 8198 un
8955 8200 8199 1
8956 8194 8197 1
8957 8193 8200 1
8958 8202 8201 un
8959 8203 8202 un
8960 8204 8203 un
8961 8199 8201 un
8962 8198 8204 un
8963 8206 8205 un
8964 8207 8206 un
8965 8208 8207 un
8966 8204 8205 un
8967 8203 8208 un
8968 8210 8209 1
8969 8211 8210 1
8970 8212 8211 un
8971 8207 8209 1
8972 8206 8212 un
8973 8214 8213 1
8974 8215 8214 un
8975 8216 8215 1
8976 8210 8213 1
8977 8209 8216 1
8978 8218 8217 un
8979 8219 8218 un
8980 8220 8219 un
8981 8212 8217 un
8982 8211 8220 un
8983 8222 8221 1
8984 8223 8222 un
8985 8224 8223 1
8986 8219 8221 1
8987 8218 8224 1
8988 8226 8225 1
8989 8227 8226 1
8990 8228 8227 un
8991 8223 8225 1
8992 8222 8228 un
8993 8230 8229 un
8994 8231 8230 un
8995 8232 8231 un
8996 8228 8229 un
8997 8227 8232 un
8998 8234 8233 1
8999 8235 8234 1
9000 8236 8235 1
9001 8232 8233 1
9002 8231 8236 1
9003 8238 8237 1
9004 8239 8238 un
9005 8230 8239 un
9006 8236 8237 1
9007 8241 8240 un
9008 8242 8241 un
9009 8243 8242 un
9010 8239 8240 un
9011 8238 8243 un
9012 8196 8244 1
9013 8244 8245 1
9014 8191 8246 1
9015 8195 8247 1
9016 8192 8248 1
9017 8201 8249 1
9018 8202 8250 1
9019 8208 8251 1
9020 8215 8252 1
9021 8214 8253 1
9022 8220 8254 1
9023 8217 8255 1
9024 8224 8256 2
9025 8221 8257 2
9026 8243 8258 1
9027 8242 8259 1
9028 8197 8260 1
9029 8197 8261 1
9030 8200 8262 1
9031 8200 8263 1
9032 8205 8264 1
9033 8213 8265 1
9034 8213 8266 1
9035 8214 8267 1
9036 8215 8268 1
9037 8216 8269 1
9038 8216 8270 1
9039 8225 8271 1
9040 8225 8272 1
9041 8226 8273 1
9042 8226 8274 1
9043 8233 8275 1
9044 8233 8276 1
9045 8234 8277 1
9046 8234 8278 1
9047 8235 8279 1
9048 8235 8280 1
9049 8236 8281 1
9050 8237 8282 1
9051 8237 8283 1
9052 8240 8284 1
9053 8241 8285 1
9054 8244 8286 1
9055 8244 8287 1
9056 8245 8288 1
9057 8245 8289 1
9058 8245 8290 1
9059 8246 8291 1
9060 8246 8292 1
9061 8246 8293 1
9062 8247 8294 1
9063 8247 8295 1
9064 8247 8296 1
9065 8248 8297 1
9066 8248 8298 1
9067 8248 8299 1
9068 8249 8300 1
9069 8249 8301 1
9070 8249 8302 1
9071 8250 8303 1
9072 8250 8304 1
9073 8250 8305 1
9074 8251 8306 1
9075 8252 8307 1
9076 8252 8308 1
9077 8252 8309 1
9078 8253 8310 1
9079 8253 8311 1
9080 8253 8312 1
9081 8254 8313 1
9082 8255 8314 1
9083 8258 8315 1
9084 8258 8316 1
9085 8258 8317 1
9086 8259 8318 1
9087 8259 8319 1
9088 8259 8320 1
9089 8323 8322 un
9090 8324 8323 un
9091 8325 8324 un
9092 8326 8325 un
9093 8321 8322 un
9094 8321 8326 un
9095 8328 8327 1
9096 8329 8328 un
9097 8330 8329 1
9098 8324 8327 1
9099 8323 8330 1
9100 8332 8331 un
9101 8333 8332 un
9102 8334 8333 un
9103 8329 8331 un
9104 8328 8334 un
9105 8336 8335 un
9106 8337 8336 un
9107 8338 8337 un
9108 8334 8335 un
9109 8333 8338 un
9110 8340 8339 1
9111 8341 8340 1
9112 8342 8341 un
9113 8337 8339 1
9114 8336 8342 un
9115 8344 8343 1
9116 8345 8344 un
9117 8346 8345 1
9118 8340 8343 1
9119 8339 8346 1
9120 8348 8347 un
9121 8349 8348 un
9122 8350 8349 un
9123 8342 8347 un
9124 8341 8350 un
9125 8352 8351 1
9126 8353 8352 un
9127 8354 8353 1
9128 8349 8351 1
9129 8348 8354 1
9130 8356 8355 1
9131 8357 8356 1
9132 8358 8357 un
9133 8353 8355 1
9134 8352 8358 un
9135 8360 8359 un
9136 8361 8360 un
9137 8362 8361 un
9138 8358 8359 un
9139 8357 8362 un
9140 8364 8363 1
9141 8365 8364 1
9142 8366 8365 1
9143 8362 8363 1
9144 8361 8366 1
9145 8368 8367 1
9146 8369 8368 un
9147 8360 8369 un
9148 8366 8367 1
9149 8371 8370 un
9150 8372 8371 un
9151 8373 8372 un
9152 8369 8370 un
9153 8368 8373 un
9154 8326 8374 1
9155 8374 8375 1
9156 8321 8376 1
9157 8325 8377 1
9158 8322 8378 1
9159 8331 8379 1
9160 8332 8380 1
9161 8338 8381 1
9162 8345 8382 1
9163 8344 8383 1
9164 8350 8384 1
9165 8347 8385 1
9166 8354 8386 2
9167 8351 8387 2
9168 8373 8388 1
9169 8372 8389 1
9170 8327 8390 1
9171 8327 8391 1
9172 8330 8392 1
9173 8330 8393 1
9174 8335 8394 1
9175 8343 8395 1
9176 8343 8396 1
9177 8344 8397 1
9178 8345 8398 1
9179 8346 8399 1
9180 8346 8400 1
9181 8355 8401 1
9182 8355 8402 1
9183 8356 8403 1
9184 8356 8404 1
9185 8363 8405 1
9186 8363 8406 1
9187 8364 8407 1
9188 8364 8408 1
9189 8365 8409 1
9190 8365 8410 1
9191 8366 8411 1
9192 8367 8412 1
9193 8367 8413 1
9194 8370 8414 1
9195 8371 8415 1
9196 8374 8416 1
9197 8374 8417 1
9198 8375 8418 1
9199 8375 8419 1
9200 8375 8420 1
9201 8376 8421 1
9202 8376 8422 1
9203 8376 8423 1
9204 8377 8424 1
9205 8377 8425 1
9206 8377 8426 1
9207 8378 8427 1
9208 8378 8428 1
9209 8378 8429 1
9210 8379 8430 1
9211 8379 8431 1
9212 8379 8432 1
9213 8380 8433 1
9214 8380 8434 1
9215 8380 8435 1
9216 8381 8436 1
9217 8382 8437 1
9218 8382 8438 1
9219 8382 8439 1
9220 8383 8440 1
9221 8383 8441 1
9222 8383 8442 1
9223 8384 8443 1
9224 8385 8444 1
9225 8388 8445 1
9226 8388 8446 1
9227 8388 8447 1
9228 8389 8448 1
9229 8389 8449 1
9230 8389 8450 1
9231 8453 8452 un
9232 8454 8453 un
9233 8455 8454 un
9234 8456 8455 un
9235 8451 8452 un
9236 8451 8456 un
9237 8458 8457 1
9238 8459 8458 un
9239 8460 8459 1
9240 8454 8457 1
9241 8453 8460 1
9242 8462 8461 un
9243 8463 8462 un
9244 8464 8463 un
9245 8459 8461 un
9246 8458 8464 un
9247 8466 8465 un
9248 8467 8466 un
9249 8468 8467 un
9250 8464 8465 un
9251 8463 8468 un
9252 8470 8469 1
9253 8471 8470 1
9254 8472 8471 un
9255 8467 8469 1
9256 8466 8472 un
9257 8474 8473 1
9258 8475 8474 un
9259 8476 8475 1
9260 8470 8473 1
9261 8469 8476 1
9262 8478 8477 un
9263 8479 8478 un
9264 8480 8479 un
9265 8472 8477 un
9266 8471 8480 un
9267 8482 8481 1
9268 8483 8482 un
9269 8484 8483 1
9270 8479 8481 1
9271 8478 8484 1
9272 8486 8485 1
9273 8487 8486 1
9274 8488 8487 un
9275 8483 8485 1
9276 8482 8488 un
9277 8490 8489 un
9278 8491 8490 un
9279 8492 8491 un
9280 8488 8489 un
9281 8487 8492 un
9282 8494 8493 1
9283 8495 8494 1
9284 8496 8495 1
9285 8492 8493 1
9286 8491 8496 1
9287 8498 8497 1
9288 8499 8498 un
9289 8490 8499 un
9290 8496 8497 1
9291 8501 8500 un
9292 8502 8501 un
9293 8503 8502 un
9294 8499 8500 un
9295 8498 8503 un
9296 8456 8504 1
9297 8504 8505 1
9298 8451 8506 1
9299 8455 8507 1
9300 8452 8508 1
9301 8461 8509 1
9302 8462 8510 1
9303 8468 8511 1
9304 8475 8512 1
9305 8474 8513 1
9306 8480 8514 1
9307 8477 8515 1
9308 8484 8516 2
9309 8481 8517 2
9310 8503 8518 1
9311 8502 8519 1
9312 8457 8520 1
9313 8457 8521 1
9314 8460 8522 1
9315 8460 8523 1
9316 8465 8524 1
9317 8473 8525 1
9318 8473 8526 1
9319 8474 8527 1
9320 8475 8528 1
9321 8476 8529 1
9322 8476 8530 1
9323 8485 8531 1
9324 8485 8532 1
9325 8486 8533 1
9326 8486 8534 1
9327 8493 8535 1
9328 8493 8536 1
9329 8494 8537 1
9330 8494 8538 1
9331 8495 8539 1
9332 8495 8540 1
9333 8496 8541 1
9334 8497 8542 1
9335 8497 8543 1
9336 8500 8544 1
9337 8501 8545 1
9338 8504 8546 1
9339 8504 8547 1
9340 8505 8548 1
9341 8505 8549 1
9342 8505 8550 1
9343 8506 8551 1
9344 8506 8552 1
9345 8506 8553 1
9346 8507 8554 1
9347 8507 8555 1
9348 8507 8556 1
9349 8508 8557 1
9350 8508 8558 1
9351 8508 8559 1
9352 8509 8560 1
9353 8509 8561 1
9354 8509 8562 1
9355 8510 8563 1
9356 8510 8564 1
9357 8510 8565 1
9358 8511 8566 1
9359 8512 8567 1
9360 8512 8568 1
9361 8512 8569 1
9362 8513 8570 1
9363 8513 8571 1
9364 8513 8572 1
9365 8514 8573 1
9366 8515 8574 1
9367 8518 8575 1
9368 8518 8576 1
9369 8518 8577 1
9370 8519 8578 1
9371 8519 8579 1
9372 8519 8580 1
9373 8583 8582 un
9374 8584 8583 un
9375 8585 8584 un
9376 8586 8585 un
9377 8581 8582 un
9378 8581 8586 un
9379 8588 8587 1
9380 8589 8588 un
9381 8590 8589 1
9382 8584 8587 1
9383 8583 8590 1
9384 8592 8591 un
9385 8593 8592 un
9386 8594 8593 un
9387 8589 8591 un
9388 8588 8594 un
9389 8596 8595 un
9390 8597 8596 un
9391 8598 8597 un
9392 8594 8595 un
9393 8593 8598 un
9394 8600 8599 1
9395 8601 8600 1
9396 8602 8601 un
9397 8597 8599 1
9398 8596 8602 un
9399 8604 8603 1
9400 8605 8604 un
9401 8606 8605 1
9402 8600 8603 1
9403 8599 8606 1
9404 8608 8607 un
9405 8609 8608 un
9406 8610 8609 un
9407 8602 8607 un
9408 8601 8610 un
9409 8612 8611 1
9410 8613 8612 un
9411 8614 8613 1
9412 8609 8611 1
9413 8608 8614 1
9414 8616 8615 1
9415 8617 8616 1
9416 8618 8617 un
9417 8613 8615 1
9418 8612 8618 un
9419 8620 8619 un
9420 8621 8620 un
9421 8622 8621 un
9422 8618 8619 un
9423 8617 8622 un
9424 8624 8623 1
9425 8625 8624 1
9426 8626 8625 1
9427 8622 8623 1
9428 8621 8626 1
9429 8628 8627 1
9430 8629 8628 un
9431 8620 8629 un
9432 8626 8627 1
9433 8631 8630 un
9434 8632 8631 un
9435 8633 8632 un
9436 8629 8630 un
9437 8628 8633 un
9438 8586 8634 1
9439 8634 8635 1
9440 8581 8636 1
9441 8585 8637 1
9442 8582 8638 1
9443 8591 8639 1
9444 8592 8640 1
9445 8598 8641 1
9446 8605 8642 1
9447 8604 8643 1
9448 8610 8644 1
9449 8607 8645 1
9450 8614 8646 2
9451 8611 8647 2
9452 8633 8648 1
9453 8632 8649 1
9454 8587 8650 1
9455 8587 8651 1
9456 8590 8652 1
9457 8590 8653 1
9458 8595 8654 1
9459 8603 8655 1
9460 8603 8656 1
9461 8604 8657 1
9462 8605 8658 1
9463 8606 8659 1
9464 8606 8660 1
9465 8615 8661 1
9466 8615 8662 1
9467 8616 8663 1
9468 8616 8664 1
9469 8623 8665 1
9470 8623 8666 1
9471 8624 8667 1
9472 8624 8668 1
9473 8625 8669 1
9474 8625 8670 1
9475 8626 8671 1
9476 8627 8672 1
9477 8627 8673 1
9478 8630 8674 1
9479 8631 8675 1
9480 8634 8676 1
9481 8634 8677 1
9482 8635 8678 1
9483 8635 8679 1
9484 8635 8680 1
9485 8636 8681 1
9486 8636 8682 1
9487 8636 8683 1
9488 8637 8684 1
9489 8637 8685 1
9490 8637 8686 1
9491 8638 8687 1
9492 8638 8688 1
9493 8638 8689 1
9494 8639 8690 1
9495 8639 8691 1
9496 8639 8692 1
9497 8640 8693 1
9498 8640 8694 1
9499 8640 8695 1
9500 8641 8696 1
9501 8642 8697 1
9502 8642 8698 1
9503 8642 8699 1
9504 8643 8700 1
9505 8643 8701 1
9506 8643 8702 1
9507 8644 8703 1
9508 8645 8704 1
9509 8648 8705 1
9510 8648 8706 1
9511 8648 8707 1
9512 8649 8708 1
9513 8649 8709 1
9514 8649 8710 1
9515 8713 8712 un
9516 8714 8713 un
9517 8715 8714 un
9518 8716 8715 un
9519 8711 8712 un
9520 8711 8716 un
9521 8718 8717 1
9522 8719 8718 un
9523 8720 8719 1
9524 8714 8717 1
9525 8713 8720 1
9526 8722 8721 un
9527 8723 8722 un
9528 8724 8723 un
9529 8719 8721 un
9530 8718 8724 un
9531 8726 8725 un
9532 8727 8726 un
9533 8728 8727 un
9534 8724 8725 un
9535 8723 8728 un
9536 8730 8729 1
9537 8731 8730 1
9538 8732 8731 un
9539 8727 8729 1
9540 8726 8732 un
9541 8734 8733 1
9542 8735 8734 un
9543 8736 8735 1
9544 8730 8733 1
9545 8729 8736 1
9546 8738 8737 un
9547 8739 8738 un
9548 8740 8739 un
9549 8732 8737 un
9550 8731 8740 un
9551 8742 8741 1
9552 8743 8742 un
9553 8744 8743 1
9554 8739 8741 1
9555 8738 8744 1
9556 8746 8745 1
9557 8747 8746 1
9558 8748 8747 un
9559 8743 8745 1
9560 8742 8748 un
9561 8750 8749 un
9562 8751 8750 un
9563 8752 8751 un
9564 8748 8749 un
9565 8747 8752 un
9566 8754 8753 1
9567 8755 8754 1
9568 8756 8755 1
9569 8752 8753 1
9570 8751 8756 1
9571 8758 8757 1
9572 8759 8758 un
9573 8750 8759 un
9574 8756 8757 1
9575 8761 8760 un
9576 8762 8761 un
9577 8763 8762 un
9578 8759 8760 un
9579 8758 8763 un
9580 8716 8764 1
9581 8764 8765 1
9582 8711 8766 1
9583 8715 8767 1
9584 8712 8768 1
9585 8721 8769 1
9586 8722 8770 1
9587 8728 8771 1
9588 8735 8772 1
9589 8734 8773 1
9590 8740 8774 1
9591 8737 8775 1
9592 8744 8776 2
9593 8741 8777 2
9594 8763 8778 1
9595 8762 8779 1
9596 8717 8780 1
9597 8717 8781 1
9598 8720 8782 1
9599 8720 8783 1
9600 8725 8784 1
9601 8733 8785 1
9602 8733 8786 1
9603 8734 8787 1
9604 8735 8788 1
9605 8736 8789 1
9606 8736 8790 1
9607 8745 8791 1
9608 8745 8792 1
9609 8746 8793 1
9610 8746 8794 1
9611 8753 8795 1
9612 8753 8796 1
9613 8754 8797 1
9614 8754 8798 1
9615 8755 8799 1
9616 8755 8800 1
9617 8756 8801 1
9618 8757 8802 1
9619 8757 8803 1
9620 8760 8804 1
9621 8761 8805 1
9622 8764 8806 1
9623 8764 8807 1
9624 8765 8808 1
9625 8765 8809 1
9626 8765 8810 1
9627 8766 8811 1
9628 8766 8812 1
9629 8766 8813 1
9630 8767 8814 1
9631 8767 8815 1
9632 8767 8816 1
9633 8768 8817 1
9634 8768 8818 1
9635 8768 8819 1
9636 8769 8820 1
9637 8769 8821 1
9638 8769 8822 1
9639 8770 8823 1
9640 8770 8824 1
9641 8770 8825 1
9642 8771 8826 1
9643 8772 8827 1
9644 8772 8828 1
9645 8772 8829 1
9646 8773 8830 1
9647 8773 8831 1
9648 8773 8832 1
9649 8774 8833 1
9650 8775 8834 1
9651 8778 8835 1
9652 8778 8836 1
9653 8778 8837 1
9654 8779 8838 1
9655 8779 8839 1
9656 8779 8840 1
9657 8843 8842 un
9658 8844 8843 un
9659 8845 8844 un
9660 8846 8845 un
9661 8841 8842 un
9662 8841 8846 un
9663 8848 8847 1
9664 8849 8848 un
9665 8850 8849 1
9666 8844 8847 1
9667 8843 8850 1
9668 8852 8851 un
9669 8853 8852 un
9670 8854 8853 un
9671 8849 8851 un
9672 8848 8854 un
9673 8856 8855 un
9674 8857 8856 un
9675 8858 8857 un
9676 8854 8855 un
9677 8853 8858 un
9678 8860 8859 1
9679 8861 8860 1
9680 8862 8861 un
9681 8857 8859 1
9682 8856 8862 un
9683 8864 8863 1
9684 8865 8864 un
9685 8866 8865 1
9686 8860 8863 1
9687 8859 8866 1
9688 8868 8867 un
9689 8869 8868 un
9690 8870 8869 un
9691 8862 8867 un
9692 8861 8870 un
9693 8872 8871 1
9694 8873 8872 un
9695 8874 8873 1
9696 8869 8871 1
9697 8868 8874 1
9698 8876 8875 1
9699 8877 8876 1
9700 8878 8877 un
9701 8873 8875 1
9702 8872 8878 un
9703 8880 8879 un
9704 8881 8880 un
9705 8882 8881 un
9706 8878 8879 un
9707 8877 8882 un
9708 8884 8883 1
9709 8885 8884 1
9710 8886 8885 1
9711 8882 8883 1
9712 8881 8886 1
9713 8888 8887 1
9714 8889 8888 un
9715 8880 8889 un
9716 8886 8887 1
9717 8891 8890 un
9718 8892 8891 un
9719 8893 8892 un
9720 8889 8890 un
9721 8888 8893 un
9722 8846 8894 1
9723 8894 8895 1
9724 8841 8896 1
9725 8845 8897 1
9726 8842 8898 1
9727 8851 8899 1
9728 8852 8900 1
9729 8858 8901 1
9730 8865 8902 1
9731 8864 8903 1
9732 8870 8904 1
9733 8867 8905 1
9734 8874 8906 2
9735 8871 8907 2
9736 8893 8908 1
9737 8892 8909 1
9738 8847 8910 1
9739 8847 8911 1
9740 8850 8912 1
9741 8850 8913 1
9742 8855 8914 1
9743 8863 8915 1
9744 8863 8916 1
9745 8864 8917 1
9746 8865 8918 1
9747 8866 8919 1
9748 8866 8920 1
9749 8875 8921 1
9750 8875 8922 1
9751 8876 8923 1
9752 8876 8924 1
9753 8883 8925 1
9754 8883 8926 1
9755 8884 8927 1
9756 8884 8928 1
9757 8885 8929 1
9758 8885 8930 1
9759 8886 8931 1
9760 8887 8932 1
9761 8887 8933 1
9762 8890 8934 1
9763 8891 8935 1
9764 8894 8936 1
9765 8894 8937 1
9766 8895 8938 1
9767 8895 8939 1
9768 8895 8940 1
9769 8896 8941 1
9770 8896 8942 1
9771 8896 8943 1
9772 8897 8944 1
9773 8897 8945 1
9774 8897 8946 1
9775 8898 8947 1
9776 8898 8948 1
9777 8898 8949 1
9778 8899 8950 1
9779 8899 8951 1
9780 8899 8952 1
9781 8900 8953 1
9782 8900 8954 1
9783 8900 8955 1
9784 8901 8956 1
9785 8902 8957 1
9786 8902 8958 1
9787 8902 8959 1
9788 8903 8960 1
9789 8903 8961 1
9790 8903 8962 1
9791 8904 8963 1
9792 8905 8964 1
9793 8908 8965 1
9794 8908 8966 1
9795 8908 8967 1
9796 8909 8968 1
9797 8909 8969 1
9798 8909 8970 1
9799 8973 8972 un
9800 8974 8973 un
9801 8975 8974 un
9802 8976 8975 un
9803 8971 8972 un
9804 8971 8976 un
9805 8978 8977 1
9806 8979 8978 un
9807 8980 8979 1
9808 8974 8977 1
9809 8973 8980 1
9810 8982 8981 un
9811 8983 8982 un
9812 8984 8983 un
9813 8979 8981 un
9814 8978 8984 un
9815 8986 8985 un
9816 8987 8986 un
9817 8988 8987 un
9818 8984 8985 un
9819 8983 8988 un
9820 8990 8989 1
9821 8991 8990 1
9822 8992 8991 un
9823 8987 8989 1
9824 8986 8992 un
9825 8994 8993 1
9826 8995 8994 un
9827 8996 8995 1
9828 8990 8993 1
9829 8989 8996 1
9830 8998 8997 un
9831 8999 8998 un
9832 9000 8999 un
9833 8992 8997 un
9834 8991 9000 un
9835 9002 9001 1
9836 9003 9002 un
9837 9004 9003 1
9838 8999 9001 1
9839 8998 9004 1
9840 9006 9005 1
9841 9007 9006 1
9842 9008 9007 un
9843 9003 9005 1
9844 9002 9008 un
9845 9010 9009 un
9846 9011 9010 un
9847 9012 9011 un
9848 9008 9009 un
9849 9007 9012 un
9850 9014 9013 1
9851 9015 9014 1
9852 9016 9015 1
9853 9012 9013 1
9854 9011 9016 1
9855 9018 9017 1
9856 9019 9018 un
9857 9010 9019 un
9858 9016 9017 1
9859 9021 9020 un
9860 9022 9021 un
9861 9023 9022 un
9862 9019 9020 un
9863 9018 9023 un
9864 8976 9024 1
9865 9024 9025 1
9866 8971 9026 1
9867 8975 9027 1
9868 8972 9028 1
9869 8981 9029 1
9870 8982 9030 1
9871 8988 9031 1
9872 8995 9032 1
9873 8994 9033 1
9874 9000 9034 1
9875 8997 9035 1
9876 9004 9036 2
9877 9001 9037 2
9878 9023 9038 1
9879 9022 9039 1
9880 8977 9040 1
9881 8977 9041 1
9882 8980 9042 1
9883 8980 9043 1
9884 8985 9044 1
9885 8993 9045 1
9886 8993 9046 1
9887 8994 9047 1
9888 8995 9048 1
9889 8996 9049 1
9890 8996 9050 1
9891 9005 9051 1
9892 9005 9052 1
9893 9006 9053 1
9894 9006 9054 1
9895 9013 9055 1
9896 9013 9056 1
9897 9014 9057 1
9898 9014 9058 1
9899 9015 9059 1
9900 9015 9060 1
9901 9016 9061 1
9902 9017 9062 1
9903 9017 9063 1
9904 9020 9064 1
9905 9021 9065 1
9906 9024 9066 1
9907 9024 9067 1
9908 9025 9068 1
9909 9025 9069 1
9910 9025 9070 1
9911 9026 9071 1
9912 9026 9072 1
9913 9026 9073 1
9914 9027 9074 1
9915 9027 9075 1
9916 9027 9076 1
9917 9028 9077 1
9918 9028 9078 1
9919 9028 9079 1
9920 9029 9080 1
9921 9029 9081 1
9922 9029 9082 1
9923 9030 9083 1
9924 9030 9084 1
9925 9030 9085 1
9926 9031 9086 1
9927 9032 9087 1
9928 9032 9088 1
9929 9032 9089 1
9930 9033 9090 1
9931 9033 9091 1
9932 9033 9092 1
9933 9034 9093 1
9934 9035 9094 1
9935 9038 9095 1
9936 9038 9096 1
9937 9038 9097 1
9938 9039 9098 1
9939 9039 9099 1
9940 9039 9100 1
9941 9103 9102 un
9942 9104 9103 un
9943 9105 9104 un
9944 9106 9105 un
9945 9101 9102 un
9946 9101 9106 un
9947 9108 9107 1
9948 9109 9108 un
9949 9110 9109 1
9950 9104 9107 1
9951 9103 9110 1
9952 9112 9111 un
9953 9113 9112 un
9954 9114 9113 un
9955 9109 9111 un
9956 9108 9114 un
9957 9116 9115 un
9958 9117 9116 un
9959 9118 9117 un
9960 9114 9115 un
9961 9113 9118 un
9962 9120 9119 1
9963 9121 9120 1
9964 9122 9121 un
9965 9117 9119 1
9966 9116 9122 un
9967 9124 9123 1
9968 9125 9124 un
9969 9126 9125 1
9970 9120 9123 1
9971 9119 9126 1
9972 9128 9127 un
9973 9129 9128 un
9974 9130 9129 un
9975 9122 9127 un
9976 9121 9130 un
9977 9132 9131 1
9978 9133 9132 un
9979 9134 9133 1
9980 9129 9131 1
9981 9128 9134 1
9982 9136 9135 1
9983 9137 9136 1
9984 9138 9137 un
9985 9133 9135 1
9986 9132 9138 un
9987 9140 9139 un
9988 9141 9140 un
9989 9142 9141 un
9990 9138 9139 un
9991 9137 9142 un
9992 9144 9143 1
9993 9145 9144 1
9994 9146 9145 1
9995 9142 9143 1
9996 9141 9146 1
9997 9148 9147 1
9998 9149 9148 un
9999 9140 9149 un
10000 9146 9147 1
10001 9151 9150 un
10002 9152 9151 un
10003 9153 9152 un
10004 9149 9150 un
10005 9148 9153 un
10006 9106 9154 1
10007 9154 9155 1
10008 9101 9156 1
10009 9105 9157 1
10010 9102 9158 1
10011 9111 9159 1
10012 9112 9160 1
10013 9118 9161 1
10014 9125 9162 1
10015 9124 9163 1
10016 9130 9164 1
10017 9127 9165 1
10018 9134 9166 2
10019 9131 9167 2
10020 9153 9168 1
10021 9152 9169 1
10022 9107 9170 1
10023 9107 9171 1
10024 9110 9172 1
10025 9110 9173 1
10026 9115 9174 1
10027 9123 9175 1
10028 9123 9176 1
10029 9124 9177 1
10030 9125 9178 1
10031 9126 9179 1
10032 9126 9180 1
10033 9135 9181 1
10034 9135 9182 1
10035 9136 9183 1
10036 9136 9184 1
10037 9143 9185 1
10038 9143 9186 1
10039 9144 9187 1
10040 9144 9188 1
10041 9145 9189 1
10042 9145 9190 1
10043 9146 9191 1
10044 9147 9192 1
10045 9147 9193 1
10046 9150 9194 1
10047 9151 9195 1
10048 9154 9196 1
10049 9154 9197 1
10050 9155 9198 1
10051 9155 9199 1
10052 9155 9200 1
10053 9156 9201 1
10054 9156 9202 1
10055 9156 9203 1
10056 9157 9204 1
10057 9157 9205 1
10058 9157 9206 1
10059 9158 9207 1
10060 9158 9208 1
10061 9158 9209 1
10062 9159 9210 1
10063 9159 9211 1
10064 9159 9212 1
10065 9160 9213 1
10066 9160 9214 1
10067 9160 9215 1
10068 9161 9216 1
10069 9162 9217 1
10070 9162 9218 1
10071 9162 9219 1
10072 9163 9220 1
10073 9163 9221 1
10074 9163 9222 1
10075 9164 9223 1
10076 9165 9224 1
10077 9168 9225 1
10078 9168 9226 1
10079 9168 9227 1
10080 9169 9228 1
10081 9169 9229 1
10082 9169 9230 1
10083 9233 9232 un
10084 9234 9233 un
10085 9235 9234 un
10086 9236 9235 un
10087 9231 9232 un
10088 9231 9236 un
10089 9238 9237 1
10090 9239 9238 un
10091 9240 9239 1
10092 9234 9237 1
10093 9233 9240 1
10094 9242 9241 un
10095 9243 9242 un
10096 9244 9243 un
10097 9239 9241 un
10098 9238 9244 un
10099 9246 9245 un
10100 9247 9246 un
10101 9248 9247 un
10102 9244 9245 un
10103 9243 9248 un
10104 9250 9249 1
10105 9251 9250 1
10106 9252 9251 un
10107 9247 9249 1
10108 9246 9252 un
10109 9254 9253 1
10110 9255 9254 un
10111 9256 9255 1
10112 9250 9253 1
10113 9249 9256 1
10114 9258 9257 un
10115 9259 9258 un
10116 9260 9259 un
10117 9252 9257 un
10118 9251 9260 un
10119 9262 9261 1
10120 9263 9262 un
10121 9264 9263 1
10122 9259 9261 1
10123 9258 9264 1
10124 9266 9265 1
10125 9267 9266 1
10126 9268 9267 un
10127 9263 9265 1
10128 9262 9268 un
10129 9270 9269 un
10130 9271 9270 un
10131 9272 9271 un
10132 9268 9269 un
10133 9267 9272 un
10134 9274 9273 1
10135 9275 9274 1
10136 9276 9275 1
10137 9272 9273 1
10138 9271 9276 1
10139 9278 9277 1
10140 9279 9278 un
10141 9270 9279 un
10142 9276 9277 1
10143 9281 9280 un
10144 9282 9281 un
10145 9283 9282 un
10146 9279 9280 un
10147 9278 9283 un
10148 9236 9284 1
10149 9284 9285 1
10150 9231 9286 1
10151 9235 9287 1
10152 9232 9288 1
10153 9241 9289 1
10154 9242 9290 1
10155 9248 9291 1
10156 9255 9292 1
10157 9254 9293 1
10158 9260 9294 1
10159 9257 9295 1
10160 9264 9296 2
10161 9261 9297 2
10162 9283 9298 1
10163 9282 9299 1
10164 9237 9300 1
10165 9237 9301 1
10166 9240 9302 1
10167 9240 9303 1
10168 9245 9304 1
10169 9253 9305 1
10170 9253 9306 1
10171 9254 9307 1
10172 9255 9308 1
10173 9256 9309 1
10174 9256 9310 1
10175 9265 9311 1
10176 9265 9312 1
10177 9266 9313 1
10178 9266 9314 1
10179 9273 9315 1
10180 9273 9316 1
10181 9274 9317 1
10182 9274 9318 1
10183 9275 9319 1
10184 9275 9320 1
10185 9276 9321 1
10186 9277 9322 1
10187 9277 9323 1
10188 9280 9324 1
10189 9281 9325 1
10190 9284 9326 1
10191 9284 9327 1
10192 9285 9328 1
10193 9285 9329 1
10194 9285 9330 1
10195 9286 9331 1
10196 9286 9332 1
10197 9286 9333 1
10198 9287 9334 1
10199 9287 9335 1
10200 9287 9336 1
10201 9288 9337 1
10202 9288 9338 1
10203 9288 9339 1
10204 9289 9340 1
10205 9289 9341 1
10206 9289 9342 1
10207 9290 9343 1
10208 9290 9344 1
10209 9290 9345 1
10210 9291 9346 1
10211 9292 9347 1
10212 9292 9348 1
10213 9292 9349 1
10214 9293 9350 1
10215 9293 9351 1
10216 9293 9352 1
10217 9294 9353 1
10218 9295 9354 1
10219 9298 9355 1
10220 9298 9356 1
10221 9298 9357 1
10222 9299 9358 1
10223 9299 9359 1
10224 9299 9360 1
10225 9363 9362 un
10226 9364 9363 un
10227 9365 9364 un
10228 9366 9365 un
10229 9361 9362 un
10230 9361 9366 un
10231 9368 9367 1
10232 9369 9368 un
10233 9370 9369 1
10234 9364 9367 1
10235 9363 9370 1
10236 9372 9371 un
10237 9373 9372 un
10238 9374 9373 un
10239 9369 9371 un
10240 9368 9374 un
10241 9376 9375 un
10242 9377 9376 un
10243 9378 9377 un
10244 9374 9375 un
10245 9373 9378 un
10246 9380 9379 1
10247 9381 9380 1
10248 9382 9381 un
10249 9377 9379 1
10250 9376 9382 un
10251 9384 9383 1
10252 9385 9384 un
10253 9386 9385 1
10254 9380 9383 1
10255 9379 9386 1
10256 9388 9387 un
10257 9389 9388 un
10258 9390 9389 un
10259 9382 9387 un
10260 9381 9390 un
10261 9392 9391 1
10262 9393 9392 un
10263 9394 9393 1
10264 9389 9391 1
10265 9388 9394 1
10266 9396 9395 1
10267 9397 9396 1
10268 9398 9397 un
10269 9393 9395 1
10270 9392 9398 un
10271 9400 9399 un
10272 9401 9400 un
10273 9402 9401 un
10274 9398 9399 un
10275 9397 9402 un
10276 9404 9403 1
10277 9405 9404 1
10278 9406 9405 1
10279 9402 9403 1
10280 9401 9406 1
10281 9408 9407 1
10282 9409 9408 un
10283 9400 9409 un
10284 9406 9407 1
10285 9411 9410 un
10286 9412 9411 un
10287 9413 9412 un
10288 9409 9410 un
10289 9408 9413 un
10290 9366 9414 1
10291 9414 9415 1
10292 9361 9416 1
10293 9365 9417 1
10294 9362 9418 1
10295 9371 9419 1
10296 9372 9420 1
10297 9378 9421 1
10298 9385 9422 1
10299 9384 9423 1
10300 9390 9424 1
10301 9387 9425 1
10302 9394 9426 2
10303 9391 9427 2
10304 9413 9428 1
10305 9412 9429 1
10306 9367 9430 1
10307 9367 9431 1
10308 9370 9432 1
10309 9370 9433 1
10310 9375 9434 1
10311 9383 9435 1
10312 9383 9436 1
10313 9384 9437 1
10314 9385 9438 1
10315 9386 9439 1
10316 9386 9440 1
10317 9395 9441 1
10318 9395 9442 1
10319 9396 9443 1
10320 9396 9444 1
10321 9403 9445 1
10322 9403 9446 1
10323 9404 9447 1
10324 9404 9448 1
10325 9405 9449 1
10326 9405 9450 1
10327 9406 9451 1
10328 9407 9452 1
10329 9407 9453 1
10330 9410 9454 1
10331 9411 9455 1
10332 9414 9456 1
10333 9414 9457 1
10334 9415 9458 1
10335 9415 9459 1
10336 9415 9460 1
10337 9416 9461 1
10338 9416 9462 1
10339 9416 9463 1
10340 9417 9464 1
10341 9417 9465 1
10342 9417 9466 1
10343 9418 9467 1
10344 9418 9468 1
10345 9418 9469 1
10346 9419 9470 1
10347 9419 9471 1
10348 9419 9472 1
10349 9420 9473 1
10350 9420 9474 1
10351 9420 9475 1
10352 9421 9476 1
10353 9422 9477 1
10354 9422 9478 1
10355 9422 9479 1
10356 9423 9480 1
10357 9423 9481 1
10358 9423 9482 1
10359 9424 9483 1
10360 9425 9484 1
10361 9428 9485 1
10362 9428 9486 1
10363 9428 9487 1
10364 9429 9488 1
10365 9429 9489 1
10366 9429 9490 1
10367 9493 9492 un
10368 9494 9493 un
10369 9495 9494 un
10370 9496 9495 un
10371 9491 9492 un
10372 9491 9496 un
10373 9498 9497 1
10374 9499 9498 un
10375 9500 9499 1
10376 9494 9497 1
10377 9493 9500 1
10378 9502 9501 un
10379 9503 9502 un
10380 9504 9503 un
10381 9499 9501 un
10382 9498 9504 un
10383 9506 9505 un
10384 9507 9506 un
10385 9508 9507 un
10386 9504 9505 un
10387 9503 9508 un
10388 9510 9509 1
10389 9511 9510 1
10390 9512 9511 un
10391 9507 9509 1
10392 9506 9512 un
10393 9514 9513 1
10394 9515 9514 un
10395 9516 9515 1
10396 9510 9513 1
10397 9509 9516 1
10398 9518 9517 un
10399 9519 9518 un
10400 9520 9519 un
10401 9512 9517 un
10402 9511 9520 un
10403 9522 9521 1
10404 9523 9522 un
10405 9524 9523 1
10406 9519 9521 1
10407 9518 9524 1
10408 9526 9525 1
10409 9527 9526 1
10410 9528 9527 un
10411 9523 9525 1
10412 9522 9528 un
10413 9530 9529 un
10414 9531 9530 un
10415 9532 9531 un
10416 9528 9529 un
10417 9527 9532 un
10418 9534 9533 1
10419 9535 9534 1
10420 9536 9535 1
10421 9532 9533 1
10422 9531 9536 1
10423 9538 9537 1
10424 9539 9538 un
10425 9530 9539 un
10426 9536 9537 1
10427 9541 9540 un
10428 9542 9541 un
10429 9543 9542 un
10430 9539 9540 un
10431 9538 9543 un
10432 9496 9544 1
10433 9544 9545 1
10434 9491 9546 1
10435 9495 9547 1
10436 9492 9548 1
10437 9501 9549 1
10438 9502 9550 1
10439 9508 9551 1
10440 9515 9552 1
10441 9514 9553 1
10442 9520 9554 1
10443 9517 9555 1
10444 9524 9556 2
10445 9521 9557 2
10446 9543 9558 1
10447 9542 9559 1
10448 9497 9560 1
10449 9497 9561 1
10450 9500 9562 1
10451 9500 9563 1
10452 9505 9564 1
10453 9513 9565 1
10454 9513 9566 1
10455 9514 9567 1
10456 9515 9568 1
10457 9516 9569 1
10458 9516 9570 1
10459 9525 9571 1
10460 9525 9572 1
10461 9526 9573 1
10462 9526 9574 1
10463 9533 9575 1
10464 9533 9576 1
10465 9534 9577 1
10466 9534 9578 1
10467 9535 9579 1
10468 9535 9580 1
10469 9536 9581 1
10470 9537 9582 1
10471 9537 9583 1
10472 9540 9584 1
10473 9541 9585 1
10474 9544 9586 1
10475 9544 9587 1
10476 9545 9588 1
10477 9545 9589 1
10478 9545 9590 1
10479 9546 9591 1
10480 9546 9592 1
10481 9546 9593 1
10482 9547 9594 1
10483 9547 9595 1
10484 9547 9596 1
10485 9548 9597 1
10486 9548 9598 1
10487 9548 9599 1
10488 9549 9600 1
10489 9549 9601 1
10490 9549 9602 1
10491 9550 9603 1
10492 9550 9604 1
10493 9550 9605 1
10494 9551 9606 1
10495 9552 9607 1
10496 9552 9608 1
10497 9552 9609 1
10498 9553 9610 1
10499 9553 9611 1
10500 9553 9612 1
10501 9554 9613 1
10502 9555 9614 1
10503 9558 9615 1
10504 9558 9616 1
10505 9558 9617 1
10506 9559 9618 1
10507 9559 9619 1
10508 9559 9620 1
10509 9623 9622 un
10510 9624 9623 un
10511 9625 9624 un
10512 9626 9625 un
10513 9621 9622 un
10514 9621 9626 un
10515 9628 9627 1
10516 9629 9628 un
10517 9630 9629 1
10518 9624 9627 1
10519 9623 9630 1
10520 9632 9631 un
10521 9633 9632 un
10522 9634 9633 un
10523 9629 9631 un
10524 9628 9634 un
10525 9636 9635 un
10526 9637 9636 un
10527 9638 9637 un
10528 9634 9635 un
10529 9633 9638 un
10530 9640 9639 1
10531 9641 9640 1
10532 9642 9641 un
10533 9637 9639 1
10534 9636 9642 un
10535 9644 9643 1
10536 9645 9644 un
10537 9646 9645 1
10538 9640 9643 1
10539 9639 9646 1
10540 9648 9647 un
10541 9649 9648 un
10542 9650 9649 un
10543 9642 9647 un
10544 9641 9650 un
10545 9652 9651 1
10546 9653 9652 un
10547 9654 9653 1
10548 9649 9651 1
10549 9648 9654 1
10550 9656 9655 1
10551 9657 9656 1
10552 9658 9657 un
10553 9653 9655 1
10554 9652 9658 un
10555 9660 9659 un
10556 9661 9660 un
10557 9662 9661 un
10558 9658 9659 un
10559 9657 9662 un
10560 9664 9663 1
10561 9665 9664 1
10562 9666 9665 1
10563 9662 9663 1
10564 9661 9666 1
10565 9668 9667 1
10566 9669 9668 un
10567 9660 9669 un
10568 9666 9667 1
10569 9671 9670 un
10570 9672 9671 un
10571 9673 9672 un
10572 9669 9670 un
10573 9668 9673 un
10574 9626 9674 1
10575 9674 9675 1
10576 9621 9676 1
10577 9625 9677 1
10578 9622 9678 1
10579 9631 9679 1
10580 9632 9680 1
10581 9638 9681 1
10582 9645 9682 1
10583 9644 9683 1
10584 9650 9684 1
10585 9647 9685 1
10586 9654 9686 2
10587 9651 9687 2
10588 9673 9688 1
10589 9672 9689 1
10590 9627 9690 1
10591 9627 9691 1
10592 9630 9692 1
10593 9630 9693 1
10594 9635 9694 1
10595 9643 9695 1
10596 9643 9696 1
10597 9644 9697 1
10598 9645 9698 1
10599 9646 9699 1
10600 9646 9700 1
10601 9655 9701 1
10602 9655 9702 1
10603 9656 9703 1
10604 9656 9704 1
10605 9663 9705 1
10606 9663 9706 1
10607 9664 9707 1
10608 9664 9708 1
10609 9665 9709 1
10610 9665 9710 1
10611 9666 9711 1
10612 9667 9712 1
10613 9667 9713 1
10614 9670 9714 1
10615 9671 9715 1
10616 9674 9716 1
10617 9674 9717 1
10618 9675 9718 1
10619 9675 9719 1
10620 9675 9720 1
10621 9676 9721 1
10622 9676 9722 1
10623 9676 9723 1
10624 9677 9724 1
10625 9677 9725 1
10626 9677 9726 1
10627 9678 9727 1
10628 9678 9728 1
10629 9678 9729 1
10630 9679 9730 1
10631 9679 9731 1
10632 9679 9732 1
10633 9680 9733 1
10634 9680 9734 1
10635 9680 9735 1
10636 9681 9736 1
10637 9682 9737 1
10638 9682 9738 1
10639 9682 9739 1
10640 9683 9740 1
10641 9683 9741 1
10642 9683 9742 1
10643 9684 9743 1
10644 9685 9744 1
10645 9688 9745 1
10646 9688 9746 1
10647 9688 9747 1
10648 9689 9748 1
10649 9689 9749 1
10650 9689 9750 1
10651 9753 9752 un
10652 9754 9753 un
10653 9755 9754 un
10654 9756 9755 un
10655 9751 9752 un
10656 9751 9756 un
10657 9758 9757 1
10658 9759 9758 un
10659 9760 9759 1
10660 9754 9757 1
10661 9753 9760 1
10662 9762 9761 un
10663 9763 9762 un
10664 9764 9763 un
10665 9759 9761 un
10666 9758 9764 un
10667 9766 9765 un
10668 9767 9766 un
10669 9768 9767 un
10670 9764 9765 un
10671 9763 9768 un
10672 9770 9769 1
10673 9771 9770 1
10674 9772 9771 un
10675 9767 9769 1
10676 9766 9772 un
10677 9774 9773 1
10678 9775 9774 un
10679 9776 9775 1
10680 9770 9773 1
10681 9769 9776 1
10682 9778 9777 un
10683 9779 9778 un
10684 9780 9779 un
10685 9772 9777 un
10686 9771 9780 un
10687 9782 9781 1
10688 9783 9782 un
10689 9784 9783 1
10690 9779 9781 1
10691 9778 9784 1
10692 9786 9785 1
10693 9787 9786 1
10694 9788 9787 un
10695 9783 9785 1
10696 9782 9788 un
10697 9790 9789 un
10698 9791 9790 un
10699 9792 9791 un
10700 9788 9789 un
10701 9787 9792 un
10702 9794 9793 1
10703 9795 9794 1
10704 9796 9795 1
10705 9792 9793 1
10706 9791 9796 1
10707 9798 9797 1
10708 9799 9798 un
10709 9790 9799 un
10710 9796 9797 1
10711 9801 9800 un
10712 9802 9801 un
10713 9803 9802 un
10714 9799 9800 un
10715 9798 9803 un
10716 9756 9804 1
10717 9804 9805 1
10718 9751 9806 1
10719 9755 9807 1
10720 9752 9808 1
10721 9761 9809 1
10722 9762 9810 1
10723 9768 9811 1
10724 9775 9812 1
10725 9774 9813 1
10726 9780 9814 1
10727 9777 9815 1
10728 9784 9816 2
10729 9781 9817 2
10730 9803 9818 1
10731 9802 9819 1
10732 9757 9820 1
10733 9757 9821 1
10734 9760 9822 1
10735 9760 9823 1
10736 9765 9824 1
10737 9773 9825 1
10738 9773 9826 1
10739 9774 9827 1
10740 9775 9828 1
10741 9776 9829 1
10742 9776 9830 1
10743 9785 9831 1
10744 9785 9832 1
10745 9786 9833 1
10746 9786 9834 1
10747 9793 9835 1
10748 9793 9836 1
10749 9794 9837 1
10750 9794 9838 1
10751 9795 9839 1
10752 9795 9840 1
10753 9796 9841 1
10754 9797 9842 1
10755 9797 9843 1
10756 9800 9844 1
10757 9801 9845 1
10758 9804 9846 1
10759 9804 9847 1
10760 9805 9848 1
10761 9805 9849 1
10762 9805 9850 1
10763 9806 9851 1
10764 9806 9852 1
10765 9806 9853 1
10766 9807 9854 1
10767 9807 9855 1
10768 9807 9856 1
10769 9808 9857 1
10770 9808 9858 1
10771 9808 9859 1
10772 9809 9860 1
10773 9809 9861 1
10774 9809 9862 1
10775 9810 9863 1
10776 9810 9864 1
10777 9810 9865 1
10778 9811 9866 1
10779 9812 9867 1
10780 9812 9868 1
10781 9812 9869 1
10782 9813 9870 1
10783 9813 9871 1
10784 9813 9872 1
10785 9814 9873 1
10786 9815 9874 1
10787 9818 9875 1
10788 9818 9876 1
10789 9818 9877 1
10790 9819 9878 1
10791 9819 9879 1
10792 9819 9880 1
10793 9883 9882 un
10794 9884 9883 un
10795 9885 9884 un
10796 9886 9885 un
10797 9881 9882 un
10798 9881 9886 un
10799 9888 9887 1
10800 9889 9888 un
10801 9890 9889 1
10802 9884 9887 1
10803 9883 9890 1
10804 9892 9891 un
10805 9893 9892 un
10806 9894 9893 un
10807 9889 9891 un
10808 9888 9894 un
10809 9896 9895 un
10810 9897 9896 un
10811 9898 9897 un
10812 9894 9895 un
10813 9893 9898 un
10814 9900 9899 1
10815 9901 9900 1
10816 9902 9901 un
10817 9897 9899 1
10818 9896 9902 un
10819 9904 9903 1
10820 9905 9904 un
10821 9906 9905 1
10822 9900 9903 1
10823 9899 9906 1
10824 9908 9907 un
10825 9909 9908 un
10826 9910 9909 un
10827 9902 9907 un
10828 9901 9910 un
10829 9912 9911 1
10830 9913 9912 un
10831 9914 9913 1
10832 9909 9911 1
10833 9908 9914 1
10834 9916 9915 1
10835 9917 9916 1
10836 9918 9917 un
10837 9913 9915 1
10838 9912 9918 un
10839 9920 9919 un
10840 9921 9920 un
10841 9922 9921 un
10842 9918 9919 un
10843 9917 9922 un
10844 9924 9923 1
10845 9925 9924 1
10846 9926 9925 1
10847 9922 9923 1
10848 9921 9926 1
10849 9928 9927 1
10850 9929 9928 un
10851 9920 9929 un
10852 9926 9927 1
10853 9931 9930 un
10854 9932 9931 un
10855 9933 9932 un
10856 9929 9930 un
10857 9928 9933 un
10858 9886 9934 1
10859 9934 9935 1
10860 9881 9936 1
10861 9885 9937 1
10862 9882 9938 1
10863 9891 9939 1
10864 9892 9940 1
10865 9898 9941 1
10866 9905 9942 1
10867 9904 9943 1
10868 9910 9944 1
10869 9907 9945 1
10870 9914 9946 2
10871 9911 9947 2
10872 9933 9948 1
10873 9932 9949 1
10874 9887 9950 1
10875 9887 9951 1
10876 9890 9952 1
10877 9890 9953 1
10878 9895 9954 1
10879 9903 9955 1
10880 9903 9956 1
10881 9904 9957 1
10882 9905 9958 1
10883 9906 9959 1
10884 9906 9960 1
10885 9915 9961 1
10886 9915 9962 1
10887 9916 9963 1
10888 9916 9964 1
10889 9923 9965 1
10890 9923 9966 1
10891 9924 9967 1
10892 9924 9968 1
10893 9925 9969 1
10894 9925 9970 1
10895 9926 9971 1
10896 9927 9972 1
10897 9927 9973 1
10898 9930 9974 1
10899 9931 9975 1
10900 9934 9976 1
10901 9934 9977 1
10902 9935 9978 1
10903 9935 9979 1
10904 9935 9980 1
10905 9936 9981 1
10906 9936 9982 1
10907 9936 9983 1
10908 9937 9984 1
10909 9937 9985 1
10910 9937 9986 1
10911 9938 9987 1
10912 9938 9988 1
10913 9938 9989 1
10914 9939 9990 1
10915 9939 9991 1
10916 9939 9992 1
10917 9940 9993 1
10918 9940 9994 1
10919 9940 9995 1
10920 9941 9996 1
10921 9942 9997 1
10922 9942 9998 1
10923 9942 9999 1
10924 9943 10000 1
10925 9943 10001 1
10926 9943 10002 1
10927 9944 10003 1
10928 9945 10004 1
10929 9948 10005 1
10930 9948 10006 1
10931 9948 10007 1
10932 9949 10008 1
10933 9949 10009 1
10934 9949 10010 1
10935 10013 10012 un
10936 10014 10013 un
10937 10015 10014 un
10938 10016 10015 un
10939 10011 10012 un
10940 10011 10016 un
10941 10018 10017 1
10942 10019 10018 un
10943 10020 10019 1
10944 10014 10017 1
10945 10013 10020 1
10946 10022 10021 un
10947 10023 10022 un
10948 10024 10023 un
10949 10019 10021 un
10950 10018 10024 un
10951 10026 10025 un
10952 10027 10026 un
10953 10028 10027 un
10954 10024 10025 un
10955 10023 10028 un
10956 10030 10029 1
10957 10031 10030 1
10958 10032 10031 un
10959 10027 10029 1
10960 10026 10032 un
10961 10034 10033 1
10962 10035 10034 un
10963 10036 10035 1
10964 10030 10033 1
10965 10029 10036 1
10966 10038 10037 un
10967 10039 10038 un
10968 10040 10039 un
10969 10032 10037 un
10970 10031 10040 un
10971 10042 10041 1
10972 10043 10042 un
10973 10044 10043 1
10974 10039 10041 1
10975 10038 10044 1
10976 10046 10045 1
10977 10047 10046 1
10978 10048 10047 un
10979 10043 10045 1
10980 10042 10048 un
10981 10050 10049 un
10982 10051 10050 un
10983 10052 10051 un
10984 10048 10049 un
10985 10047 10052 un
10986 10054 10053 1
10987 10055 10054 1
10988 10056 10055 1
10989 10052 10053 1
10990 10051 10056 1
10991 10058 10057 1
10992 10059 10058 un
10993 10050 10059 un
10994 10056 10057 1
10995 10061 10060 un
10996 10062 10061 un
10997 10063 10062 un
10998 10059 10060 un
10999 10058 10063 un
11000 10016 10064 1
11001 10064 10065 1
11002 10011 10066 1
11003 10015 10067 1
11004 10012 10068 1
11005 10021 10069 1
11006 10022 10070 1
11007 10028 10071 1
11008 10035 10072 1
11009 10034 10073 1
11010 10040 10074 1
11011 10037 10075 1
11012 10044 10076 2
11013 10041 10077 2
11014 10063 10078 1
11015 10062 10079 1
11016 10017 10080 1
11017 10017 10081 1
11018 10020 10082 1
11019 10020 10083 1
11020 10025 10084 1
11021 10033 10085 1
11022 10033 10086 1
11023 10034 10087 1
11024 10035 10088 1
11025 10036 10089 1
11026 10036 10090 1
11027 10045 10091 1
11028 10045 10092 1
11029 10046 10093 1
11030 10046 10094 1
11031 10053 10095 1
11032 10053 10096 1
11033 10054 10097 1
11034 10054 10098 1
11035 10055 10099 1
11036 10055 10100 1
11037 10056 10101 1
11038 10057 10102 1
11039 10057 10103 1
11040 10060 10104 1
11041 10061 10105 1
11042 10064 10106 1
11043 10064 10107 1
11044 10065 10108 1
11045 10065 10109 1
11046 10065 10110 1
11047 10066 10111 1
11048 10066 10112 1
11049 10066 10113 1
11050 10067 10114 1
11051 10067 10115 1
11052 10067 10116 1
11053 10068 10117 1
11054 10068 10118 1
11055 10068 10119 1
11056 10069 10120 1
11057 10069 10121 1
11058 10069 10122 1
11059 10070 10123 1
11060 10070 10124 1
11061 10070 10125 1
11062 10071 10126 1
11063 10072 10127 1
11064 10072 10128 1
11065 10072 10129 1
11066 10073 10130 1
11067 10073 10131 1
11068 10073 10132 1
11069 10074 10133 1
11070 10075 10134 1
11071 10078 10135 1
11072 10078 10136 1
11073 10078 10137 1
11074 10079 10138 1
11075 10079 10139 1
11076 10079 10140 1
11077 10143 10142 un
11078 10144 10143 un
11079 10145 10144 un
11080 10146 10145 un
11081 10141 10142 un
11082 10141 10146 un
11083 10148 10147 1
11084 10149 10148 un
11085 10150 10149 1
11086 10144 10147 1
11087 10143 10150 1
11088 10152 10151 un
11089 10153 10152 un
11090 10154 10153 un
11091 10149 10151 un
11092 10148 10154 un
11093 10156 10155 un
11094 10157 10156 un
11095 10158 10157 un
11096 10154 10155 un
11097 10153 10158 un
11098 10160 10159 1
11099 10161 10160 1
11100 10162 10161 un
11101 10157 10159 1
11102 10156 10162 un
11103 10164 10163 1
11104 10165 10164 un
11105 10166 10165 1
11106 10160 10163 1
11107 10159 10166 1
11108 10168 10167 un
11109 10169 10168 un
11110 10170 10169 un
11111 10162 10167 un
11112 10161 10170 un
11113 10172 10171 1
11114 10173 10172 un
11115 10174 10173 1
11116 10169 10171 1
11117 10168 10174 1
11118 10176 10175 1
11119 10177 10176 1
11120 10178 10177 un
11121 10173 10175 1
11122 10172 10178 un
11123 10180 10179 un
11124 10181 10180 un
11125 10182 10181 un
11126 10178 10179 un
11127 10177 10182 un
11128 10184 10183 1
11129 10185 10184 1
11130 10186 10185 1
11131 10182 10183 1
11132 10181 10186 1
11133 10188 10187 1
11134 10189 10188 un
11135 10180 10189 un
11136 10186 10187 1
11137 10191 10190 un
11138 10192 10191 un
11139 10193 10192 un
11140 10189 10190 un
11141 10188 10193 un
11142 10146 10194 1
11143 10194 10195 1
11144 10141 10196 1
11145 10145 10197 1
11146 10142 10198 1
11147 10151 10199 1
11148 10152 10200 1
11149 10158 10201 1
11150 10165 10202 1
11151 10164 10203 1
11152 10170 10204 1
11153 10167 10205 1
11154 10174 10206 2
11155 10171 10207 2
11156 10193 10208 1
11157 10192 10209 1
11158 10147 10210 1
11159 10147 10211 1
11160 10150 10212 1
11161 10150 10213 1
11162 10155 10214 1
11163 10163 10215 1
11164 10163 10216 1
11165 10164 10217 1
11166 10165 10218 1
11167 10166 10219 1
11168 10166 10220 1
11169 10175 10221 1
11170 10175 10222 1
11171 10176 10223 1
11172 10176 10224 1
11173 10183 10225 1
11174 10183 10226 1
11175 10184 10227 1
11176 10184 10228 1
11177 10185 10229 1
11178 10185 10230 1
11179 10186 10231 1
11180 10187 10232 1
11181 10187 10233 1
11182 10190 10234 1
11183 10191 10235 1
11184 10194 10236 1
11185 10194 10237 1
11186 10195 10238 1
11187 10195 10239 1
11188 10195 10240 1
11189 10196 10241 1
11190 10196 10242 1
11191 10196 10243 1
11192 10197 10244 1
11193 10197 10245 1
11194 10197 10246 1
11195 10198 10247 1
11196 10198 10248 1
11197 10198 10249 1
11198 10199 10250 1
11199 10199 10251 1
11200 10199 10252 1
11201 10200 10253 1
11202 10200 10254 1
11203 10200 10255 1
11204 10201 10256 1
11205 10202 10257 1
11206 10202 10258 1
11207 10202 10259 1
11208 10203 10260 1
11209 10203 10261 1
11210 10203 10262 1
11211 10204 10263 1
11212 10205 10264 1
11213 10208 10265 1
11214 10208 10266 1
11215 10208 10267 1
11216 10209 10268 1
11217 10209 10269 1
11218 10209 10270 1
11219 10273 10272 un
11220 10274 10273 un
11221 10275 10274 un
11222 10276 10275 un
11223 10271 10272 un
11224 10271 10276 un
11225 10278 10277 1
11226 10279 10278 un
11227 10280 10279 1
11228 10274 10277 1
11229 10273 10280 1
11230 10282 10281 un
11231 10283 10282 un
11232 10284 10283 un
11233 10279 10281 un
11234 10278 10284 un
11235 10286 10285 un
11236 10287 10286 un
11237 10288 10287 un
11238 10284 10285 un
11239 10283 10288 un
11240 10290 10289 1
11241 10291 10290 1
11242 10292 10291 un
11243 10287 10289 1
11244 10286 10292 un
11245 10294 10293 1
11246 10295 10294 un
11247 10296 10295 1
11248 10290 10293 1
11249 10289 10296 1
11250 10298 10297 un
11251 10299 10298 un
11252 10300 10299 un
11253 10292 10297 un
11254 10291 10300 un
11255 10302 10301 1
11256 10303 10302 un
11257 10304 10303 1
11258 10299 10301 1
11259 10298 10304 1
11260 10306 10305 1
11261 10307 10306 1
11262 10308 10307 un
11263 10303 10305 1
11264 10302 10308 un
11265 10310 10309 un
11266 10311 10310 un
11267 10312 10311 un
11268 10308 10309 un
11269 10307 10312 un
11270 10314 10313 1
11271 10315 10314 1
11272 10316 10315 1
11273 10312 10313 1
11274 10311 10316 1
11275 10318 10317 1
11276 10319 10318 un
11277 10310 10319 un
11278 10316 10317 1
11279 10321 10320 un
11280 10322 10321 un
11281 10323 10322 un
11282 10319 10320 un
11283 10318 10323 un
11284 10276 10324 1
11285 10324 10325 1
11286 10271 10326 1
11287 10275 10327 1
11288 10272 10328 1
11289 10281 10329 1
11290 10282 10330 1
11291 10288 10331 1
11292 10295 10332 1
11293 10294 10333 1
11294 10300 10334 1
11295 10297 10335 1
11296 10304 10336 2
11297 10301 10337 2
11298 10323 10338 1
11299 10322 10339 1
11300 10277 10340 1
11301 10277 10341 1
11302 10280 10342 1
11303 10280 10343 1
11304 10285 10344 1
11305 10293 10345 1
11306 10293 10346 1
11307 10294 10347 1
11308 10295 10348 1
11309 10296 10349 1
11310 10296 10350 1
11311 10305 10351 1
11312 10305 10352 1
11313 10306 10353 1
11314 10306 10354 1
11315 10313 10355 1
11316 10313 10356 1
11317 10314 10357 1
11318 10314 10358 1
11319 10315 10359 1
11320 10315 10360 1
11321 10316 10361 1
11322 10317 10362 1
11323 10317 10363 1
11324 10320 10364 1
11325 10321 10365 1
11326 10324 10366 1
11327 10324 10367 1
11328 10325 10368 1
11329 10325 10369 1
11330 10325 10370 1
11331 10326 10371 1
11332 10326 10372 1
11333 10326 10373 1
11334 10327 10374 1
11335 10327 10375 1
11336 10327 10376 1
11337 10328 10377 1
11338 10328 10378 1
11339 10328 10379 1
11340 10329 10380 1
11341 10329 10381 1
11342 10329 10382 1
11343 10330 10383 1
11344 10330 10384 1
11345 10330 10385 1
11346 10331 10386 1
11347 10332 10387 1
11348 10332 10388 1
11349 10332 10389 1
11350 10333 10390 1
11351 10333 10391 1
11352 10333 10392 1
11353 10334 10393 1
11354 10335 10394 1
11355 10338 10395 1
11356 10338 10396 1
11357 10338 10397 1
11358 10339 10398 1
11359 10339 10399 1
11360 10339 10400 1
11361 10403 10402 un
11362 10404 10403 un
11363 10405 10404 un
11364 10406 10405 un
11365 10401 10402 un
11366 10401 10406 un
11367 10408 10407 1
11368 10409 10408 un
11369 10410 10409 1
11370 10404 10407 1
11371 10403 10410 1
11372 10412 10411 un
11373 10413 10412 un
11374 10414 10413 un
11375 10409 10411 un
11376 10408 10414 un
11377 10416 10415 un
11378 10417 10416 un
11379 10418 10417 un
11380 10414 10415 un
11381 10413 10418 un
11382 10420 10419 1
11383 10421 10420 1
11384 10422 10421 un
11385 10417 10419 1
11386 10416 10422 un
11387 10424 10423 1
11388 10425 10424 un
11389 10426 10425 1
11390 10420 10423 1
11391 10419 10426 1
11392 10428 10427 un
11393 10429 10428 un
11394 10430 10429 un
11395 10422 10427 un
11396 10421 10430 un
11397 10432 10431 1
11398 10433 10432 un
11399 10434 10433 1
11400 10429 10431 1
11401 10428 10434 1
11402 10436 10435 1
11403 10437 10436 1
11404 10438 10437 un
11405 10433 10435 1
11406 10432 10438 un
11407 10440 10439 un
11408 10441 10440 un
11409 10442 10441 un
11410 10438 10439 un
11411 10437 10442 un
11412 10444 10443 1
11413 10445 10444 1
11414 10446 10445 1
11415 10442 10443 1
11416 10441 10446 1
11417 10448 10447 1
11418 10449 10448 un
11419 10440 10449 un
11420 10446 10447 1
11421 10451 10450 un
11422 10452 10451 un
11423 10453 10452 un
11424 10449 10450 un
11425 10448 10453 un
11426 10406 10454 1
11427 10454 10455 1
11428 10401 10456 1
11429 10405 10457 1
11430 10402 10458 1
11431 10411 10459 1
11432 10412 10460 1
11433 10418 10461 1
11434 10425 10462 1
11435 10424 10463 1
11436 10430 10464 1
11437 10427 10465 1
11438 10434 10466 2
11439 10431 10467 2
11440 10453 10468 1
11441 10452 10469 1
11442 10407 10470 1
11443 10407 10471 1
11444 10410 10472 1
11445 10410 10473 1
11446 10415 10474 1
11447 10423 10475 1
11448 10423 10476 1
11449 10424 10477 1
11450 10425 10478 1
11451 10426 10479 1
11452 10426 10480 1
11453 10435 10481 1
11454 10435 10482 1
11455 10436 10483 1
11456 10436 10484 1
11457 10443 10485 1
11458 10443 10486 1
11459 10444 10487 1
11460 10444 10488 1
11461 10445 10489 1
11462 10445 10490 1
11463 10446 10491 1
11464 10447 10492 1
11465 10447 10493 1
11466 10450 10494 1
11467 10451 10495 1
11468 10454 10496 1
11469 10454 10497 1
11470 10455 10498 1
11471 10455 10499 1
11472 10455 10500 1
11473 10456 10501 1
11474 10456 10502 1
11475 10456 10503 1
11476 10457 10504 1
11477 10457 10505 1
11478 10457 10506 1
11479 10458 10507 1
11480 10458 10508 1
11481 10458 10509 1
11482 10459 10510 1
11483 10459 10511 1
11484 10459 10512 1
11485 10460 10513 1
11486 10460 10514 1
11487 10460 10515 1
11488 10461 10516 1
11489 10462 10517 1
11490 10462 10518 1
11491 10462 10519 1
11492 10463 10520 1
11493 10463 10521 1
11494 10463 10522 1
11495 10464 10523 1
11496 10465 10524 1
11497 10468 10525 1
11498 10468 10526 1
11499 10468 10527 1
11500 10469 10528 1
11501 10469 10529 1
11502 10469 10530 1
11503 10533 10532 un
11504 10534 10533 un
11505 10535 10534 un
11506 10536 10535 un
11507 10531 10532 un
11508 10531 10536 un
11509 10538 10537 1
11510 10539 10538 un
11511 10540 10539 1
11512 10534 10537 1
11513 10533 10540 1
11514 10542 10541 un
11515 10543 10542 un
11516 10544 10543 un
11517 10539 10541 un
11518 10538 10544 un
11519 10546 10545 un
11520 10547 10546 un
11521 10548 10547 un
11522 10544 10545 un
11523 10543 10548 un
11524 10550 10549 1
11525 10551 10550 1
11526 10552 10551 un
11527 10547 10549 1
11528 10546 10552 un
11529 10554 10553 1
11530 10555 10554 un
11531 10556 10555 1
11532 10550 10553 1
11533 10549 10556 1
11534 10558 10557 un
11535 10559 10558 un
11536 10560 10559 un
11537 10552 10557 un
11538 10551 10560 un
11539 10562 10561 1
11540 10563 10562 un
11541 10564 10563 1
11542 10559 10561 1
11543 10558 10564 1
11544 10566 10565 1
11545 10567 10566 1
11546 10568 10567 un
11547 10563 10565 1
11548 10562 10568 un
11549 10570 10569 un
11550 10571 10570 un
11551 10572 10571 un
11552 10568 10569 un
11553 10567 10572 un
11554 10574 10573 1
11555 10575 10574 1
11556 10576 10575 1
11557 10572 10573 1
11558 10571 10576 1
11559 10578 10577 1
11560 10579 10578 un
11561 10570 10579 un
11562 10576 10577 1
11563 10581 10580 un
11564 10582 10581 un
11565 10583 10582 un
11566 10579 10580 un
11567 10578 10583 un
11568 10536 10584 1
11569 10584 10585 1
11570 10531 10586 1
11571 10535 10587 1
11572 10532 10588 1
11573 10541 10589 1
11574 10542 10590 1
11575 10548 10591 1
11576 10555 10592 1
11577 10554 10593 1
11578 10560 10594 1
11579 10557 10595 1
11580 10564 10596 2
11581 10561 10597 2
11582 10583 10598 1
11583 10582 10599 1
11584 10537 10600 1
11585 10537 10601 1
11586 10540 10602 1
11587 10540 10603 1
11588 10545 10604 1
11589 10553 10605 1
11590 10553 10606 1
11591 10554 10607 1
11592 10555 10608 1
11593 10556 10609 1
11594 10556 10610 1
11595 10565 10611 1
11596 10565 10612 1
11597 10566 10613 1
11598 10566 10614 1
11599 10573 10615 1
11600 10573 10616 1
11601 10574 10617 1
11602 10574 10618 1
11603 10575 10619 1
11604 10575 10620 1
11605 10576 10621 1
11606 10577 10622 1
11607 10577 10623 1
11608 10580 10624 1
11609 10581 10625 1
11610 10584 10626 1
11611 10584 10627 1
11612 10585 10628 1
11613 10585 10629 1
11614 10585 10630 1
11615 10586 10631 1
11616 10586 10632 1
11617 10586 10633 1
11618 10587 10634 1
11619 10587 10635 1
11620 10587 10636 1
11621 10588 10637 1
11622 10588 10638 1
11623 10588 10639 1
11624 10589 10640 1
11625 10589 10641 1
11626 10589 10642 1
11627 10590 10643 1
11628 10590 10644 1
11629 10590 10645 1
11630 10591 10646 1
11631 10592 10647 1
11632 10592 10648 1
11633 10592 10649 1
11634 10593 10650 1
11635 10593 10651 1
11636 10593 10652 1
11637 10594 10653 1
11638 10595 10654 1
11639 10598 10655 1
11640 10598 10656 1
11641 10598 10657 1
11642 10599 10658 1
11643 10599 10659 1
11644 10599 10660 1
11645 10663 10662 un
11646 10664 10663 un
11647 10665 10664 un
11648 10666 10665 un
11649 10661 10662 un
11650 10661 10666 un
11651 10668 10667 1
11652 10669 10668 un
11653 10670 10669 1
11654 10664 10667 1
11655 10663 10670 1
11656 10672 10671 un
11657 10673 10672 un
11658 10674 10673 un
11659 10669 10671 un
11660 10668 10674 un
11661 10676 10675 un
11662 10677 10676 un
11663 10678 10677 un
11664 10674 10675 un
11665 10673 10678 un
11666 10680 10679 1
11667 10681 10680 1
11668 10682 10681 un
11669 10677 10679 1
11670 10676 10682 un
11671 10684 10683 1
11672 10685 10684 un
11673 10686 10685 1
11674 10680 10683 1
11675 10679 10686 1
11676 10688 10687 un
11677 10689 10688 un
11678 10690 10689 un
11679 10682 10687 un
11680 10681 10690 un
11681 10692 10691 1
11682 10693 10692 un
11683 10694 10693 1
11684 10689 10691 1
11685 10688 10694 1
11686 10696 10695 1
11687 10697 10696 1
11688 10698 10697 un
11689 10693 10695 1
11690 10692 10698 un
11691 10700 10699 un
11692 10701 10700 un
11693 10702 10701 un
11694 10698 10699 un
11695 10697 10702 un
11696 10704 10703 1
11697 10705 10704 1
11698 10706 10705 1
11699 10702 10703 1
11700 10701 10706 1
11701 10708 10707 1
11702 10709 10708 un
11703 10700 10709 un
11704 10706 10707 1
11705 10711 10710 un
11706 10712 10711 un
11707 10713 10712 un
11708 10709 10710 un
11709 10708 10713 un
11710 10666 10714 1
11711 10714 10715 1
11712 10661 10716 1
11713 10665 10717 1
11714 10662 10718 1
11715 10671 10719 1
11716 10672 10720 1
11717 10678 10721 1
11718 10685 10722 1
11719 10684 10723 1
11720 10690 10724 1
11721 10687 10725 1
11722 10694 10726 2
11723 10691 10727 2
11724 10713 10728 1
11725 10712 10729 1
11726 10667 10730 1
11727 10667 10731 1
11728 10670 10732 1
11729 10670 10733 1
11730 10675 10734 1
11731 10683 10735 1
11732 10683 10736 1
11733 10684 10737 1
11734 10685 10738 1
11735 10686 10739 1
11736 10686 10740 1
11737 10695 10741 1
11738 10695 10742 1
11739 10696 10743 1
11740 10696 10744 1
11741 10703 10745 1
11742 10703 10746 1
11743 10704 10747 1
11744 10704 10748 1
11745 10705 10749 1
11746 10705 10750 1
11747 10706 10751 1
11748 10707 10752 1
11749 10707 10753 1
11750 10710 10754 1
11751 10711 10755 1
11752 10714 10756 1
11753 10714 10757 1
11754 10715 10758 1
11755 10715 10759 1
11756 10715 10760 1
11757 10716 10761 1
11758 10716 10762 1
11759 10716 10763 1
11760 10717 10764 1
11761 10717 10765 1
11762 10717 10766 1
11763 10718 10767 1
11764 10718 10768 1
11765 10718 10769 1
11766 10719 10770 1
11767 10719 10771 1
11768 10719 10772 1
11769 10720 10773 1
11770 10720 10774 1
11771 10720 10775 1
11772 10721 10776 1
11773 10722 10777 1
11774 10722 10778 1
11775 10722 10779 1
11776 10723 10780 1
11777 10723 10781 1
11778 10723 10782 1
11779 10724 10783 1
11780 10725 10784 1
11781 10728 10785 1
11782 10728 10786 1
11783 10728 10787 1
11784 10729 10788 1
11785 10729 10789 1
11786 10729 10790 1
11787 10793 10792 un
11788 10794 10793 un
11789 10795 10794 un
11790 10796 10795 un
11791 10791 10792 un
11792 10791 10796 un
11793 10798 10797 1
11794 10799 10798 un
11795 10800 10799 1
11796 10794 10797 1
11797 10793 10800 1
11798 10802 10801 un
11799 10803 10802 un
11800 10804 10803 un
11801 10799 10801 un
11802 10798 10804 un
11803 10806 10805 un
11804 10807 10806 un
11805 10808 10807 un
11806 10804 10805 un
11807 10803 10808 un
11808 10810 10809 1
11809 10811 10810 1
11810 10812 10811 un
11811 10807 10809 1
11812 10806 10812 un
11813 10814 10813 1
11814 10815 10814 un
11815 10816 10815 1
11816 10810 10813 1
11817 10809 10816 1
11818 10818 10817 un
11819 10819 10818 un
11820 10820 10819 un
11821 10812 10817 un
11822 10811 10820 un
11823 10822 10821 1
11824 10823 10822 un
11825 10824 10823 1
11826 10819 10821 1
11827 10818 10824 1
11828 10826 10825 1
11829 10827 10826 1
11830 10828 10827 un
11831 10823 10825 1
11832 10822 10828 un
11833 10830 10829 un
11834 10831 10830 un
11835 10832 10831 un
11836 10828 10829 un
11837 10827 10832 un
11838 10834 10833 1
11839 10835 10834 1
11840 10836 10835 1
11841 10832 10833 1
11842 10831 10836 1
11843 10838 10837 1
11844 10839 10838 un
11845 10830 10839 un
11846 10836 10837 1
11847 10841 10840 un
11848 10842 10841 un
11849 10843 10842 un
11850 10839 10840 un
11851 10838 10843 un
11852 10796 10844 1
11853 10844 10845 1
11854 10791 10846 1
11855 10795 10847 1
11856 10792 10848 1
11857 10801 10849 1
11858 10802 10850 1
11859 10808 10851 1
11860 10815 10852 1
11861 10814 10853 1
11862 10820 10854 1
11863 10817 10855 1
11864 10824 10856 2
11865 10821 10857 2
11866 10843 10858 1
11867 10842 10859 1
11868 10797 10860 1
11869 10797 10861 1
11870 10800 10862 1
11871 10800 10863 1
11872 10805 10864 1
11873 10813 10865 1
11874 10813 10866 1
11875 10814 10867 1
11876 10815 10868 1
11877 10816 10869 1
11878 10816 10870 1
11879 10825 10871 1
11880 10825 10872 1
11881 10826 10873 1
11882 10826 10874 1
11883 10833 10875 1
11884 10833 10876 1
11885 10834 10877 1
11886 10834 10878 1
11887 10835 10879 1
11888 10835 10880 1
11889 10836 10881 1
11890 10837 10882 1
11891 10837 10883 1
11892 10840 10884 1
11893 10841 10885 1
11894 10844 10886 1
11895 10844 10887 1
11896 10845 10888 1
11897 10845 10889 1
11898 10845 10890 1
11899 10846 10891 1
11900 10846 10892 1
11901 10846 10893 1
11902 10847 10894 1
11903 10847 10895 1
11904 10847 10896 1
11905 10848 10897 1
11906 10848 10898 1
11907 10848 10899 1
11908 10849 10900 1
11909 10849 10901 1
11910 10849 10902 1
11911 10850 10903 1
11912 10850 10904 1
11913 10850 10905 1
11914 10851 10906 1
11915 10852 10907 1
11916 10852 10908 1
11917 10852 10909 1
11918 10853 10910 1
11919 10853 10911 1
11920 10853 10912 1
11921 10854 10913 1
11922 10855 10914 1
11923 10858 10915 1
11924 10858 10916 1
11925 10858 10917 1
11926 10859 10918 1
11927 10859 10919 1
11928 10859 10920 1
11929 10923 10922 un
11930 10924 10923 un
11931 10925 10924 un
11932 10926 10925 un
11933 10921 10922 un
11934 10921 10926 un
11935 10928 10927 1
11936 10929 10928 un
11937 10930 10929 1
11938 10924 10927 1
11939 10923 10930 1
11940 10932 10931 un
11941 10933 10932 un
11942 10934 10933 un
11943 10929 10931 un
11944 10928 10934 un
11945 10936 10935 un
11946 10937 10936 un
11947 10938 10937 un
11948 10934 10935 un
11949 10933 10938 un
11950 10940 10939 1
11951 10941 10940 1
11952 10942 10941 un
11953 10937 10939 1
11954 10936 10942 un
11955 10944 10943 1
11956 10945 10944 un
11957 10946 10945 1
11958 10940 10943 1
11959 10939 10946 1
11960 10948 10947 un
11961 10949 10948 un
11962 10950 10949 un
11963 10942 10947 un
11964 10941 10950 un
11965 10952 10951 1
11966 10953 10952 un
11967 10954 10953 1
11968 10949 10951 1
11969 10948 10954 1
11970 10956 10955 1
11971 10957 10956 1
11972 10958 10957 un
11973 10953 10955 1
11974 10952 10958 un
11975 10960 10959 un
11976 10961 10960 un
11977 10962 10961 un
11978 10958 10959 un
11979 10957 10962 un
11980 10964 10963 1
11981 10965 10964 1
11982 10966 10965 1
11983 10962 10963 1
11984 10961 10966 1
11985 10968 10967 1
11986 10969 10968 un
11987 10960 10969 un
11988 10966 10967 1
11989 10971 10970 un
11990 10972 10971 un
11991 10973 10972 un
11992 10969 10970 un
11993 10968 10973 un
11994 10926 10974 1
11995 10974 10975 1
11996 10921 10976 1
11997 10925 10977 1
11998 10922 10978 1
11999 10931 10979 1
12000 10932 10980 1
12001 10938 10981 1
12002 10945 10982 1
12003 10944 10983 1
12004 10950 10984 1
12005 10947 10985 1
12006 10954 10986 2
12007 10951 10987 2
12008 10973 10988 1
12009 10972 10989 1
12010 10927 10990 1
12011 10927 10991 1
12012 10930 10992 1
12013 10930 10993 1
12014 10935 10994 1
12015 10943 10995 1
12016 10943 10996 1
12017 10944 10997 1
12018 10945 10998 1
12019 10946 10999 1
12020 10946 11000 1
12021 10955 11001 1
12022 10955 11002 1
12023 10956 11003 1
12024 10956 11004 1
12025 10963 11005 1
12026 10963 11006 1
12027 10964 11007 1
12028 10964 11008 1
12029 10965 11009 1
12030 10965 11010 1
12031 10966 11011 1
12032 10967 11012 1
12033 10967 11013 1
12034 10970 11014 1
12035 10971 11015 1
12036 10974 11016 1
12037 10974 11017 1
12038 10975 11018 1
12039 10975 11019 1
12040 10975 11020 1
12041 10976 11021 1
12042 10976 11022 1
12043 10976 11023 1
12044 10977 11024 1
12045 10977 11025 1
12046 10977 11026 1
12047 10978 11027 1
12048 10978 11028 1
12049 10978 11029 1
12050 10979 11030 1
12051 10979 11031 1
12052 10979 11032 1
12053 10980 11033 1
12054 10980 11034 1
12055 10980 11035 1
12056 10981 11036 1
12057 10982 11037 1
12058 10982 11038 1
12059 10982 11039 1
12060 10983 11040 1
12061 10983 11041 1
12062 10983 11042 1
12063 10984 11043 1
12064 10985 11044 1
12065 10988 11045 1
12066 10988 11046 1
12067 10988 11047 1
12068 10989 11048 1
12069 10989 11049 1
12070 10989 11050 1
12071 11053 11052 un
12072 11054 11053 un
12073 11055 11054 un
12074 11056 11055 un
12075 11051 11052 un
12076 11051 11056 un
12077 11058 11057 1
12078 11059 11058 un
12079 11060 11059 1
12080 11054 11057 1
12081 11053 11060 1
12082 11062 11061 un
12083 11063 11062 un
12084 11064 11063 un
12085 11059 11061 un
12086 11058 11064 un
12087 11066 11065 un
12088 11067 11066 un
12089 11068 11067 un
12090 11064 11065 un
12091 11063 11068 un
12092 11070 11069 1
12093 11071 11070 1
12094 11072 11071 un
12095 11067 11069 1
12096 11066 11072 un
12097 11074 11073 1
12098 11075 11074 un
12099 11076 11075 1
12100 11070 11073 1
12101 11069 11076 1
12102 11078 11077 un
12103 11079 11078 un
12104 11080 11079 un
12105 11072 11077 un
12106 11071 11080 un
12107 11082 11081 1
12108 11083 11082 un
12109 11084 11083 1
12110 11079 11081 1
12111 11078 11084 1
12112 11086 11085 1
12113 11087 11086 1
12114 11088 11087 un
12115 11083 11085 1
12116 11082 11088 un
12117 11090 11089 un
12118 11091 11090 un
12119 11092 11091 un
12120 11088 11089 un
12121 11087 11092 un
12122 11094 11093 1
12123 11095 11094 1
12124 11096 11095 1
12125 11092 11093 1
12126 11091 11096 1
12127 11098 11097 1
12128 11099 11098 un
12129 11090 11099 un
12130 11096 11097 1
12131 11101 11100 un
12132 11102 11101 un
12133 11103 11102 un
12134 11099 11100 un
12135 11098 11103 un
12136 11056 11104 1
12137 11104 11105 1
12138 11051 11106 1
12139 11055 11107 1
12140 11052 11108 1
12141 11061 11109 1
12142 11062 11110 1
12143 11068 11111 1
12144 11075 11112 1
12145 11074 11113 1
12146 11080 11114 1
12147 11077 11115 1
12148 11084 11116 2
12149 11081 11117 2
12150 11103 11118 1
12151 11102 11119 1
12152 11057 11120 1
12153 11057 11121 1
12154 11060 11122 1
12155 11060 11123 1
12156 11065 11124 1
12157 11073 11125 1
12158 11073 11126 1
12159 11074 11127 1
12160 11075 11128 1
12161 11076 11129 1
12162 11076 11130 1
12163 11085 11131 1
12164 11085 11132 1
12165 11086 11133 1
12166 11086 11134 1
12167 11093 11135 1
12168 11093 11136 1
12169 11094 11137 1
12170 11094 11138 1
12171 11095 11139 1
12172 11095 11140 1
12173 11096 11141 1
12174 11097 11142 1
12175 11097 11143 1
12176 11100 11144 1
12177 11101 11145 1
12178 11104 11146 1
12179 11104 11147 1
12180 11105 11148 1
12181 11105 11149 1
12182 11105 11150 1
12183 11106 11151 1
12184 11106 11152 1
12185 11106 11153 1
12186 11107 11154 1
12187 11107 11155 1
12188 11107 11156 1
12189 11108 11157 1
12190 11108 11158 1
12191 11108 11159 1
12192 11109 11160 1
12193 11109 11161 1
12194 11109 11162 1
12195 11110 11163 1
12196 11110 11164 1
12197 11110 11165 1
12198 11111 11166 1
12199 11112 11167 1
12200 11112 11168 1
12201 11112 11169 1
12202 11113 11170 1
12203 11113 11171 1
12204 11113 11172 1
12205 11114 11173 1
12206 11115 11174 1
12207 11118 11175 1
12208 11118 11176 1
12209 11118 11177 1
12210 11119 11178 1
12211 11119 11179 1
12212 11119 11180 1
12213 11183 11182 un
12214 11184 11183 un
12215 11185 11184 un
12216 11186 11185 un
12217 11181 11182 un
12218 11181 11186 un
12219 11188 11187 1
12220 11189 11188 un
12221 11190 11189 1
12222 11184 11187 1
12223 11183 11190 1
12224 11192 11191 un
12225 11193 11192 un
12226 11194 11193 un
12227 11189 11191 un
12228 11188 11194 un
12229 11196 11195 un
12230 11197 11196 un
12231 11198 11197 un
12232 11194 11195 un
12233 11193 11198 un
12234 11200 11199 1
12235 11201 11200 1
12236 11202 11201 un
12237 11197 11199 1
12238 11196 11202 un
12239 11204 11203 1
12240 11205 11204 un
12241 11206 11205 1
12242 11200 11203 1
12243 11199 11206 1
12244 11208 11207 un
12245 11209 11208 un
12246 11210 11209 un
12247 11202 11207 un
12248 11201 11210 un
12249 11212 11211 1
12250 11213 11212 un
12251 11214 11213 1
12252 11209 11211 1
12253 11208 11214 1
12254 11216 11215 1
12255 11217 11216 1
12256 11218 11217 un
12257 11213 11215 1
12258 11212 11218 un
12259 11220 11219 un
12260 11221 11220 un
12261 11222 11221 un
12262 11218 11219 un
12263 11217 11222 un
12264 11224 11223 1
12265 11225 11224 1
12266 11226 11225 1
12267 11222 11223 1
12268 11221 11226 1
12269 11228 11227 1
12270 11229 11228 un
12271 11220 11229 un
12272 11226 11227 1
12273 11231 11230 un
12274 11232 11231 un
12275 11233 11232 un
12276 11229 11230 un
12277 11228 11233 un
12278 11186 11234 1
12279 11234 11235 1
12280 11181 11236 1
12281 11185 11237 1
12282 11182 11238 1
12283 11191 11239 1
12284 11192 11240 1
12285 11198 11241 1
12286 11205 11242 1
12287 11204 11243 1
12288 11210 11244 1
12289 11207 11245 1
12290 11214 11246 2
12291 11211 11247 2
12292 11233 11248 1
12293 11232 11249 1
12294 11187 11250 1
12295 11187 11251 1
12296 11190 11252 1
12297 11190 11253 1
12298 11195 11254 1
12299 11203 11255 1
12300 11203 11256 1
12301 11204 11257 1
12302 11205 11258 1
12303 11206 11259 1
12304 11206 11260 1
12305 11215 11261 1
12306 11215 11262 1
12307 11216 11263 1
12308 11216 11264 1
12309 11223 11265 1
12310 11223 11266 1
12311 11224 11267 1
12312 11224 11268 1
12313 11225 11269 1
12314 11225 11270 1
12315 11226 11271 1
12316 11227 11272 1
12317 11227 11273 1
12318 11230 11274 1
12319 11231 11275 1
12320 11234 11276 1
12321 11234 11277 1
12322 11235 11278 1
12323 11235 11279 1
12324 11235 11280 1
12325 11236 11281 1
12326 11236 11282 1
12327 11236 11283 1
12328 11237 11284 1
12329 11237 11285 1
12330 11237 11286 1
12331 11238 11287 1
12332 11238 11288 1
12333 11238 11289 1
12334 11239 11290 1
12335 11239 11291 1
12336 11239 11292 1
12337 11240 11293 1
12338 11240 11294 1
12339 11240 11295 1
12340 11241 11296 1
12341 11242 11297 1
12342 11242 11298 1
12343 11242 11299 1
12344 11243 11300 1
12345 11243 11301 1
12346 11243 11302 1
12347 11244 11303 1
12348 11245 11304 1
12349 11248 11305 1
12350 11248 11306 1
12351 11248 11307 1
12352 11249 11308 1
12353 11249 11309 1
12354 11249 11310 1
12355 11313 11312 un
12356 11314 11313 un
12357 11315 11314 un
12358 11316 11315 un
12359 11311 11312 un
12360 11311 11316 un
12361 11318 11317 1
12362 11319 11318 un
12363 11320 11319 1
12364 11314 11317 1
12365 11313 11320 1
12366 11322 11321 un
12367 11323 11322 un
12368 11324 11323 un
12369 11319 11321 un
12370 11318 11324 un
12371 11326 11325 un
12372 11327 11326 un
12373 11328 11327 un
12374 11324 11325 un
12375 11323 11328 un
12376 11330 11329 1
12377 11331 11330 1
12378 11332 11331 un
12379 11327 11329 1
12380 11326 11332 un
12381 11334 11333 1
12382 11335 11334 un
12383 11336 11335 1
12384 11330 11333 1
12385 11329 11336 1
12386 11338 11337 un
12387 11339 11338 un
12388 11340 11339 un
12389 11332 11337 un
12390 11331 11340 un
12391 11342 11341 1
12392 11343 11342 un
12393 11344 11343 1
12394 11339 11341 1
12395 11338 11344 1
12396 11346 11345 1
12397 11347 11346 1
12398 11348 11347 un
12399 11343 11345 1
12400 11342 11348 un
12401 11350 11349 un
12402 11351 11350 un
12403 11352 11351 un
12404 11348 11349 un
12405 11347 11352 un
12406 11354 11353 1
12407 11355 11354 1
12408 11356 11355 1
12409 11352 11353 1
12410 11351 11356 1
12411 11358 11357 1
12412 11359 11358 un
12413 11350 11359 un
12414 11356 11357 1
12415 11361 11360 un
12416 11362 11361 un
12417 11363 11362 un
12418 11359 11360 un
12419 11358 11363 un
12420 11316 11364 1
12421 11364 11365 1
12422 11311 11366 1
12423 11315 11367 1
12424 11312 11368 1
12425 11321 11369 1
12426 11322 11370 1
12427 11328 11371 1
12428 11335 11372 1
12429 11334 11373 1
12430 11340 11374 1
12431 11337 11375 1
12432 11344 11376 2
12433 11341 11377 2
12434 11363 11378 1
12435 11362 11379 1
12436 11317 11380 1
12437 11317 11381 1
12438 11320 11382 1
12439 11320 11383 1
12440 11325 11384 1
12441 11333 11385 1
12442 11333 11386 1
12443 11334 11387 1
12444 11335 11388 1
12445 11336 11389 1
12446 11336 11390 1
12447 11345 11391 1
12448 11345 11392 1
12449 11346 11393 1
12450 11346 11394 1
12451 11353 11395 1
12452 11353 11396 1
12453 11354 11397 1
12454 11354 11398 1
12455 11355 11399 1
12456 11355 11400 1
12457 11356 11401 1
12458 11357 11402 1
12459 11357 11403 1
12460 11360 11404 1
12461 11361 11405 1
12462 11364 11406 1
12463 11364 11407 1
12464 11365 11408 1
12465 11365 11409 1
12466 11365 11410 1
12467 11366 11411 1
12468 11366 11412 1
12469 11366 11413 1
12470 11367 11414 1
12471 11367 11415 1
12472 11367 11416 1
12473 11368 11417 1
12474 11368 11418 1
12475 11368 11419 1
12476 11369 11420 1
12477 11369 11421 1
12478 11369 11422 1
12479 11370 11423 1
12480 11370 11424 1
12481 11370 11425 1
12482 11371 11426 1
12483 11372 11427 1
12484 11372 11428 1
12485 11372 11429 1
12486 11373 11430 1
12487 11373 11431 1
12488 11373 11432 1
12489 11374 11433 1
12490 11375 11434 1
12491 11378 11435 1
12492 11378 11436 1
12493 11378 11437 1
12494 11379 11438 1
12495 11379 11439 1
12496 11379 11440 1
12497 11443 11442 un
12498 11444 11443 un
12499 11445 11444 un
12500 11446 11445 un
12501 11441 11442 un
12502 11441 11446 un
12503 11448 11447 1
12504 11449 11448 un
12505 11450 11449 1
12506 11444 11447 1
12507 11443 11450 1
12508 11452 11451 un
12509 11453 11452 un
12510 11454 11453 un
12511 11449 11451 un
12512 11448 11454 un
12513 11456 11455 un
12514 11457 11456 un
12515 11458 11457 un
12516 11454 11455 un
12517 11453 11458 un
12518 11460 11459 1
12519 11461 11460 1
12520 11462 11461 un
12521 11457 11459 1
12522 11456 11462 un
12523 11464 11463 1
12524 11465 11464 un
12525 11466 11465 1
12526 11460 11463 1
12527 11459 11466 1
12528 11468 11467 un
12529 11469 11468 un
12530 11470 11469 un
12531 11462 11467 un
12532 11461 11470 un
12533 11472 11471 1
12534 11473 11472 un
12535 11474 11473 1
12536 11469 11471 1
12537 11468 11474 1
12538 11476 11475 1
12539 11477 11476 1
12540 11478 11477 un
12541 11473 11475 1
12542 11472 11478 un
12543 11480 11479 un
12544 11481 11480 un
12545 11482 11481 un
12546 11478 11479 un
12547 11477 11482 un
12548 11484 11483 1
12549 11485 11484 1
12550 11486 11485 1
12551 11482 11483 1
12552 11481 11486 1
12553 11488 11487 1
12554 11489 11488 un
12555 11480 11489 un
12556 11486 11487 1
12557 11491 11490 un
12558 11492 11491 un
12559 11493 11492 un
12560 11489 11490 un
12561 11488 11493 un
12562 11446 11494 1
12563 11494 11495 1
12564 11441 11496 1
12565 11445 11497 1
12566 11442 11498 1
12567 11451 11499 1
12568 11452 11500 1
12569 11458 11501 1
12570 11465 11502 1
12571 11464 11503 1
12572 11470 11504 1
12573 11467 11505 1
12574 11474 11506 2
12575 11471 11507 2
12576 11493 11508 1
12577 11492 11509 1
12578 11447 11510 1
12579 11447 11511 1
12580 11450 11512 1
12581 11450 11513 1
12582 11455 11514 1
12583 11463 11515 1
12584 11463 11516 1
12585 11464 11517 1
12586 11465 11518 1
12587 11466 11519 1
12588 11466 11520 1
12589 11475 11521 1
12590 11475 11522 1
12591 11476 11523 1
12592 11476 11524 1
12593 11483 11525 1
12594 11483 11526 1
12595 11484 11527 1
12596 11484 11528 1
12597 11485 11529 1
12598 11485 11530 1
12599 11486 11531 1
12600 11487 11532 1
12601 11487 11533 1
12602 11490 11534 1
12603 11491 11535 1
12604 11494 11536 1
12605 11494 11537 1
12606 11495 11538 1
12607 11495 11539 1
12608 11495 11540 1
12609 11496 11541 1
12610 11496 11542 1
12611 11496 11543 1
12612 11497 11544 1
12613 11497 11545 1
12614 11497 11546 1
12615 11498 11547 1
12616 11498 11548 1
12617 11498 11549 1
12618 11499 11550 1
12619 11499 11551 1
12620 11499 11552 1
12621 11500 11553 1
12622 11500 11554 1
12623 11500 11555 1
12624 11501 11556 1
12625 11502 11557 1
12626 11502 11558 1
12627 11502 11559 1
12628 11503 11560 1
12629 11503 11561 1
12630 11503 11562 1
12631 11504 11563 1
12632 11505 11564 1
12633 11508 11565 1
12634 11508 11566 1
12635 11508 11567 1
12636 11509 11568 1
12637 11509 11569 1
12638 11509 11570 1
12639 11573 11572 un
12640 11574 11573 un
12641 11575 11574 un
12642 11576 11575 un
12643 11571 11572 un
12644 11571 11576 un
12645 11578 11577 1
12646 11579 11578 un
12647 11580 11579 1
12648 11574 11577 1
12649 11573 11580 1
12650 11582 11581 un
12651 11583 11582 un
12652 11584 11583 un
12653 11579 11581 un
12654 11578 11584 un
12655 11586 11585 un
12656 11587 11586 un
12657 11588 11587 un
12658 11584 11585 un
12659 11583 11588 un
12660 11590 11589 1
12661 11591 11590 1
12662 11592 11591 un
12663 11587 11589 1
12664 11586 11592 un
12665 11594 11593 1
12666 11595 11594 un
12667 11596 11595 1
12668 11590 11593 1
12669 11589 11596 1
12670 11598 11597 un
12671 11599 11598 un
12672 11600 11599 un
12673 11592 11597 un
12674 11591 11600 un
12675 11602 11601 1
12676 11603 11602 un
12677 11604 11603 1
12678 11599 11601 1
12679 11598 11604 1
12680 11606 11605 1
12681 11607 11606 1
12682 11608 11607 un
12683 11603 11605 1
12684 11602 11608 un
12685 11610 11609 un
12686 11611 11610 un
12687 11612 11611 un
12688 11608 11609 un
12689 11607 11612 un
12690 11614 11613 1
12691 11615 11614 1
12692 11616 11615 1
12693 11612 11613 1
12694 11611 11616 1
12695 11618 11617 1
12696 11619 11618 un
12697 11610 11619 un
12698 11616 11617 1
12699 11621 11620 un
12700 11622 11621 un
12701 11623 11622 un
12702 11619 11620 un
12703 11618 11623 un
12704 11576 11624 1
12705 11624 11625 1
12706 11571 11626 1
12707 11575 11627 1
12708 11572 11628 1
12709 11581 11629 1
12710 11582 11630 1
12711 11588 11631 1
12712 11595 11632 1
12713 11594 11633 1
12714 11600 11634 1
12715 11597 11635 1
12716 11604 11636 2
12717 11601 11637 2
12718 11623 11638 1
12719 11622 11639 1
12720 11577 11640 1
12721 11577 11641 1
12722 11580 11642 1
12723 11580 11643 1
12724 11585 11644 1
12725 11593 11645 1
12726 11593 11646 1
12727 11594 11647 1
12728 11595 11648 1
12729 11596 11649 1
12730 11596 11650 1
12731 11605 11651 1
12732 11605 11652 1
12733 11606 11653 1
12734 11606 11654 1
12735 11613 11655 1
12736 11613 11656 1
12737 11614 11657 1
12738 11614 11658 1
12739 11615 11659 1
12740 11615 11660 1
12741 11616 11661 1
12742 11617 11662 1
12743 11617 11663 1
12744 11620 11664 1
12745 11621 11665 1
12746 11624 11666 1
12747 11624 11667 1
12748 11625 11668 1
12749 11625 11669 1
12750 11625 11670 1
12751 11626 11671 1
12752 11626 11672 1
12753 11626 11673 1
12754 11627 11674 1
12755 11627 11675 1
12756 11627 11676 1
12757 11628 11677 1
12758 11628 11678 1
12759 11628 11679 1
12760 11629 11680 1
12761 11629 11681 1
12762 11629 11682 1
12763 11630 11683 1
12764 11630 11684 1
12765 11630 11685 1
12766 11631 11686 1
12767 11632 11687 1
12768 11632 11688 1
12769 11632 11689 1
12770 11633 11690 1
12771 11633 11691 1
12772 11633 11692 1
12773 11634 11693 1
12774 11635 11694 1
12775 11638 11695 1
12776 11638 11696 1
12777 11638 11697 1
12778 11639 11698 1
12779 11639 11699 1
12780 11639 11700 1
12781 11703 11702 un
12782 11704 11703 un
12783 11705 11704 un
12784 11706 11705 un
12785 11701 11702 un
12786 11701 11706 un
12787 11708 11707 1
12788 11709 11708 un
12789 11710 11709 1
12790 11704 11707 1
12791 11703 11710 1
12792 11712 11711 un
12793 11713 11712 un
12794 11714 11713 un
12795 11709 11711 un
12796 11708 11714 un
12797 11716 11715 un
12798 11717 11716 un
12799 11718 11717 un
12800 11714 11715 un
12801 11713 11718 un
12802 11720 11719 1
12803 11721 11720 1
12804 11722 11721 un
12805 11717 11719 1
12806 11716 11722 un
12807 11724 11723 1
12808 11725 11724 un
12809 11726 11725 1
12810 11720 11723 1
12811 11719 11726 1
12812 11728 11727 un
12813 11729 11728 un
12814 11730 11729 un
12815 11722 11727 un
12816 11721 11730 un
12817 11732 11731 1
12818 11733 11732 un
12819 11734 11733 1
12820 11729 11731 1
12821 11728 11734 1
12822 11736 11735 1
12823 11737 11736 1
12824 11738 11737 un
12825 11733 11735 1
12826 11732 11738 un
12827 11740 11739 un
12828 11741 11740 un
12829 11742 11741 un
12830 11738 11739 un
12831 11737 11742 un
12832 11744 11743 1
12833 11745 11744 1
12834 11746 11745 1
12835 11742 11743 1
12836 11741 11746 1
12837 11748 11747 1
12838 11749 11748 un
12839 11740 11749 un
12840 11746 11747 1
12841 11751 11750 un
12842 11752 11751 un
12843 11753 11752 un
12844 11749 11750 un
12845 11748 11753 un
12846 11706 11754 1
12847 11754 11755 1
12848 11701 11756 1
12849 11705 11757 1
12850 11702 11758 1
12851 11711 11759 1
12852 11712 11760 1
12853 11718 11761 1
12854 11725 11762 1
12855 11724 11763 1
12856 11730 11764 1
12857 11727 11765 1
12858 11734 11766 2
12859 11731 11767 2
12860 11753 11768 1
12861 11752 11769 1
12862 11707 11770 1
12863 11707 11771 1
12864 11710 11772 1
12865 11710 11773 1
12866 11715 11774 1
12867 11723 11775 1
12868 11723 11776 1
12869 11724 11777 1
12870 11725 11778 1
12871 11726 11779 1
12872 11726 11780 1
12873 11735 11781 1
12874 11735 11782 1
12875 11736 11783 1
12876 11736 11784 1
12877 11743 11785 1
12878 11743 11786 1
12879 11744 11787 1
12880 11744 11788 1
12881 11745 11789 1
12882 11745 11790 1
12883 11746 11791 1
12884 11747 11792 1
12885 11747 11793 1
12886 11750 11794 1
12887 11751 11795 1
12888 11754 11796 1
12889 11754 11797 1
12890 11755 11798 1
12891 11755 11799 1
12892 11755 11800 1
12893 11756 11801 1
12894 11756 11802 1
12895 11756 11803 1
12896 11757 11804 1
12897 11757 11805 1
12898 11757 11806 1
12899 11758 11807 1
12900 11758 11808 1
12901 11758 11809 1
12902 11759 11810 1
12903 11759 11811 1
12904 11759 11812 1
12905 11760 11813 1
12906 11760 11814 1
12907 11760 11815 1
12908 11761 11816 1
12909 11762 11817 1
12910 11762 11818 1
12911 11762 11819 1
12912 11763 11820 1
12913 11763 11821 1
12914 11763 11822 1
12915 11764 11823 1
12916 11765 11824 1
12917 11768 11825 1
12918 11768 11826 1
12919 11768 11827 1
12920 11769 11828 1
12921 11769 11829 1
12922 11769 11830 1
12923 11833 11832 un
12924 11834 11833 un
12925 11835 11834 un
12926 11836 11835 un
12927 11831 11832 un
12928 11831 11836 un
12929 11838 11837 1
12930 11839 11838 un
12931 11840 11839 1
12932 11834 11837 1
12933 11833 11840 1
12934 11842 11841 un
12935 11843 11842 un
12936 11844 11843 un
12937 11839 11841 un
12938 11838 11844 un
12939 11846 11845 un
12940 11847 11846 un
12941 11848 11847 un
12942 11844 11845 un
12943 11843 11848 un
12944 11850 11849 1
12945 11851 11850 1
12946 11852 11851 un
12947 11847 11849 1
12948 11846 11852 un
12949 11854 11853 1
12950 11855 11854 un
12951 11856 11855 1
12952 11850 11853 1
12953 11849 11856 1
12954 11858 11857 un
12955 11859 11858 un
12956 11860 11859 un
12957 11852 11857 un
12958 11851 11860 un
12959 11862 11861 1
12960 11863 11862 un
12961 11864 11863 1
12962 11859 11861 1
12963 11858 11864 1
12964 11866 11865 1
12965 11867 11866 1
12966 11868 11867 un
12967 11863 11865 1
12968 11862 11868 un
12969 11870 11869 un
12970 11871 11870 un
12971 11872 11871 un
12972 11868 11869 un
12973 11867 11872 un
12974 11874 11873 1
12975 11875 11874 1
12976 11876 11875 1
12977 11872 11873 1
12978 11871 11876 1
12979 11878 11877 1
12980 11879 11878 un
12981 11870 11879 un
12982 11876 11877 1
12983 11881 11880 un
12984 11882 11881 un
12985 11883 11882 un
12986 11879 11880 un
12987 11878 11883 un
12988 11836 11884 1
12989 11884 11885 1
12990 11831 11886 1
12991 11835 11887 1
12992 11832 11888 1
12993 11841 11889 1
12994 11842 11890 1
12995 11848 11891 1
12996 11855 11892 1
12997 11854 11893 1
12998 11860 11894 1
12999 11857 11895 1
13000 11864 11896 2
13001 11861 11897 2
13002 11883 11898 1
13003 11882 11899 1
13004 11837 11900 1
13005 11837 11901 1
13006 11840 11902 1
13007 11840 11903 1
13008 11845 11904 1
13009 11853 11905 1
13010 11853 11906 1
13011 11854 11907 1
13012 11855 11908 1
13013 11856 11909 1
13014 11856 11910 1
13015 11865 11911 1
13016 11865 11912 1
13017 11866 11913 1
13018 11866 11914 1
13019 11873 11915 1
13020 11873 11916 1
13021 11874 11917 1
13022 11874 11918 1
13023 11875 11919 1
13024 11875 11920 1
13025 11876 11921 1
13026 11877 11922 1
13027 11877 11923 1
13028 11880 11924 1
13029 11881 11925 1
13030 11884 11926 1
13031 11884 11927 1
13032 11885 11928 1
13033 11885 11929 1
13034 11885 11930 1
13035 11886 11931 1
13036 11886 11932 1
13037 11886 11933 1
13038 11887 11934 1
13039 11887 11935 1
13040 11887 11936 1
13041 11888 11937 1
13042 11888 11938 1
13043 11888 11939 1
13044 11889 11940 1
13045 11889 11941 1
13046 11889 11942 1
13047 11890 11943 1
13048 11890 11944 1
13049 11890 11945 1
13050 11891 11946 1
13051 11892 11947 1
13052 11892 11948 1
13053 11892 11949 1
13054 11893 11950 1
13055 11893 11951 1
13056 11893 11952 1
13057 11894 11953 1
13058 11895 11954 1
13059 11898 11955 1
13060 11898 11956 1
13061 11898 11957 1
13062 11899 11958 1
13063 11899 11959 1
13064 11899 11960 1
13065 11963 11962 un
13066 11964 11963 un
13067 11965 11964 un
13068 11966 11965 un
13069 11961 11962 un
13070 11961 11966 un
13071 11968 11967 1
13072 11969 11968 un
13073 11970 11969 1
13074 11964 11967 1
13075 11963 11970 1
13076 11972 11971 un
13077 11973 11972 un
13078 11974 11973 un
13079 11969 11971 un
13080 11968 11974 un
13081 11976 11975 un
13082 11977 11976 un
13083 11978 11977 un
13084 11974 11975 un
13085 11973 11978 un
13086 11980 11979 1
13087 11981 11980 1
13088 11982 11981 un
13089 11977 11979 1
13090 11976 11982 un
13091 11984 11983 1
13092 11985 11984 un
13093 11986 11985 1
13094 11980 11983 1
13095 11979 11986 1
13096 11988 11987 un
13097 11989 11988 un
13098 11990 11989 un
13099 11982 11987 un
13100 11981 11990 un
13101 11992 11991 1
13102 11993 11992 un
13103 11994 11993 1
13104 11989 11991 1
13105 11988 11994 1
13106 11996 11995 1
13107 11997 11996 1
13108 11998 11997 un
13109 11993 11995 1
13110 11992 11998 un
13111 12000 11999 un
13112 12001 12000 un
13113 12002 12001 un
13114 11998 11999 un
13115 11997 12002 un
13116 12004 12003 1
13117 12005 12004 1
13118 12006 12005 1
13119 12002 12003 1
13120 12001 12006 1
13121 12008 12007 1
13122 12009 12008 un
13123 12000 12009 un
13124 12006 12007 1
13125 12011 12010 un
13126 12012 12011 un
13127 12013 12012 un
13128 12009 12010 un
13129 12008 12013 un
13130 11966 12014 1
13131 12014 12015 1
13132 11961 12016 1
13133 11965 12017 1
13134 11962 12018 1
13135 11971 12019 1
13136 11972 12020 1
13137 11978 12021 1
13138 11985 12022 1
13139 11984 12023 1
13140 11990 12024 1
13141 11987 12025 1
13142 11994 12026 2
13143 11991 12027 2
13144 12013 12028 1
13145 12012 12029 1
13146 11967 12030 1
13147 11967 12031 1
13148 11970 12032 1
13149 11970 12033 1
13150 11975 12034 1
13151 11983 12035 1
13152 11983 12036 1
13153 11984 12037 1
13154 11985 12038 1
13155 11986 12039 1
13156 11986 12040 1
13157 11995 12041 1
13158 11995 12042 1
13159 11996 12043 1
13160 11996 12044 1
13161 12003 12045 1
13162 12003 12046 1
13163 12004 12047 1
13164 12004 12048 1
13165 12005 12049 1
13166 12005 12050 1
13167 12006 12051 1
13168 12007 12052 1
13169 12007 12053 1
13170 12010 12054 1
13171 12011 12055 1
13172 12014 12056 1
13173 12014 12057 1
13174 12015 12058 1
13175 12015 12059 1
13176 12015 12060 1
13177 12016 12061 1
13178 12016 12062 1
13179 12016 12063 1
13180 12017 12064 1
13181 12017 12065 1
13182 12017 12066 1
13183 12018 12067 1
13184 12018 12068 1
13185 12018 12069 1
13186 12019 12070 1
13187 12019 12071 1
13188 12019 12072 1
13189 12020 12073 1
13190 12020 12074 1
13191 12020 12075 1
13192 12021 12076 1
13193 12022 12077 1
13194 12022 12078 1
13195 12022 12079 1
13196 12023 12080 1
13197 12023 12081 1
13198 12023 12082 1
13199 12024 12083 1
13200 12025 12084 1
13201 12028 12085 1
13202 12028 12086 1
13203 12028 12087 1
13204 12029 12088 1
13205 12029 12089 1
13206 12029 12090 1
13207 12093 12092 un
13208 12094 12093 un
13209 12095 12094 un
13210 12096 12095 un
13211 12091 12092 un
13212 12091 12096 un
13213 12098 12097 1
13214 12099 12098 un
13215 12100 12099 1
13216 12094 12097 1
13217 12093 12100 1
13218 12102 12101 un
13219 12103 12102 un
13220 12104 12103 un
13221 12099 12101 un
13222 12098 12104 un
13223 12106 12105 un
13224 12107 12106 un
13225 12108 12107 un
13226 12104 12105 un
13227 12103 12108 un
13228 12110 12109 1
13229 12111 12110 1
13230 12112 12111 un
13231 12107 12109 1
13232 12106 12112 un
13233 12114 12113 1
13234 12115 12114 un
13235 12116 12115 1
13236 12110 12113 1
13237 12109 12116 1
13238 12118 12117 un
13239 12119 12118 un
13240 12120 12119 un
13241 12112 12117 un
13242 12111 12120 un
13243 12122 12121 1
13244 12123 12122 un
13245 12124 12123 1
13246 12119 12121 1
13247 12118 12124 1
13248 12126 12125 1
13249 12127 12126 1
13250 12128 12127 un
13251 12123 12125 1
13252 12122 12128 un
13253 12130 12129 un
13254 12131 12130 un
13255 12132 12131 un
13256 12128 12129 un
13257 12127 12132 un
13258 12134 12133 1
13259 12135 12134 1
13260 12136 12135 1
13261 12132 12133 1
13262 12131 12136 1
13263 12138 12137 1
13264 12139 12138 un
13265 12130 12139 un
13266 12136 12137 1
13267 12141 12140 un
13268 12142 12141 un
13269 12143 12142 un
13270 12139 12140 un
13271 12138 12143 un
13272 12096 12144 1
13273 12144 12145 1
13274 12091 12146 1
13275 12095 12147 1
13276 12092 12148 1
13277 12101 12149 1
13278 12102 12150 1
13279 12108 12151 1
13280 12115 12152 1
13281 12114 12153 1
13282 12120 12154 1
13283 12117 12155 1
13284 12124 12156 2
13285 12121 12157 2
13286 12143 12158 1
13287 12142 12159 1
13288 12097 12160 1
13289 12097 12161 1
13290 12100 12162 1
13291 12100 12163 1
13292 12105 12164 1
13293 12113 12165 1
13294 12113 12166 1
13295 12114 12167 1
13296 12115 12168 1
13297 12116 12169 1
13298 12116 12170 1
13299 12125 12171 1
13300 12125 12172 1
13301 12126 12173 1
13302 12126 12174 1
13303 12133 12175 1
13304 12133 12176 1
13305 12134 12177 1
13306 12134 12178 1
13307 12135 12179 1
13308 12135 12180 1
13309 12136 12181 1
13310 12137 12182 1
13311 12137 12183 1
13312 12140 12184 1
13313 12141 12185 1
13314 12144 12186 1
13315 12144 12187 1
13316 12145 12188 1
13317 12145 12189 1
13318 12145 12190 1
13319 12146 12191 1
13320 12146 12192 1
13321 12146 12193 1
13322 12147 12194 1
13323 12147 12195 1
13324 12147 12196 1
13325 12148 12197 1
13326 12148 12198 1
13327 12148 12199 1
13328 12149 12200 1
13329 12149 12201 1
13330 12149 12202 1
13331 12150 12203 1
13332 12150 12204 1
13333 12150 12205 1
13334 12151 12206 1
13335 12152 12207 1
13336 12152 12208 1
13337 12152 12209 1
13338 12153 12210 1
13339 12153 12211 1
13340 12153 12212 1
13341 12154 12213 1
13342 12155 12214 1
13343 12158 12215 1
13344 12158 12216 1
13345 12158 12217 1
13346 12159 12218 1
13347 12159 12219 1
13348 12159 12220 1
13349 12223 12222 un
13350 12224 12223 un
13351 12225 12224 un
13352 12226 12225 un
13353 12221 12222 un
13354 12221 12226 un
13355 12228 12227 1
13356 12229 12228 un
13357 12230 12229 1
13358 12224 12227 1
13359 12223 12230 1
13360 12232 12231 un
13361 12233 12232 un
13362 12234 12233 un
13363 12229 12231 un
13364 12228 12234 un
13365 12236 12235 un
13366 12237 12236 un
13367 12238 12237 un
13368 12234 12235 un
13369 12233 12238 un
13370 12240 12239 1
13371 12241 12240 1
13372 12242 12241 un
13373 12237 12239 1
13374 12236 12242 un
13375 12244 12243 1
13376 12245 12244 un
13377 12246 12245 1
13378 12240 12243 1
13379 12239 12246 1
13380 12248 12247 un
13381 12249 12248 un
13382 12250 12249 un
13383 12242 12247 un
13384 12241 12250 un
13385 12252 12251 1
13386 12253 12252 un
13387 12254 12253 1
13388 12249 12251 1
13389 12248 12254 1
13390 12256 12255 1
13391 12257 12256 1
13392 12258 12257 un
13393 12253 12255 1
13394 12252 12258 un
13395 12260 12259 un
13396 12261 12260 un
13397 12262 12261 un
13398 12258 12259 un
13399 12257 12262 un
13400 12264 12263 1
13401 12265 12264 1
13402 12266 12265 1
13403 12262 12263 1
13404 12261 12266 1
13405 12268 12267 1
13406 12269 12268 un
13407 12260 12269 un
13408 12266 12267 1
13409 12271 12270 un
13410 12272 12271 un
13411 12273 12272 un
13412 12269 12270 un
13413 12268 12273 un
13414 12226 12274 1
13415 12274 12275 1
13416 12221 12276 1
13417 12225 12277 1
13418 12222 12278 1
13419 12231 12279 1
13420 12232 12280 1
13421 12238 12281 1
13422 12245 12282 1
13423 12244 12283 1
13424 12250 12284 1
13425 12247 12285 1
13426 12254 12286 2
13427 12251 12287 2
13428 12273 12288 1
13429 12272 12289 1
13430 12227 12290 1
13431 12227 12291 1
13432 12230 12292 1
13433 12230 12293 1
13434 12235 12294 1
13435 12243 12295 1
13436 12243 12296 1
13437 12244 12297 1
13438 12245 12298 1
13439 12246 12299 1
13440 12246 12300 1
13441 12255 12301 1
13442 12255 12302 1
13443 12256 12303 1
13444 12256 12304 1
13445 12263 12305 1
13446 12263 12306 1
13447 12264 12307 1
13448 12264 12308 1
13449 12265 12309 1
13450 12265 12310 1
13451 12266 12311 1
13452 12267 12312 1
13453 12267 12313 1
13454 12270 12314 1
13455 12271 12315 1
13456 12274 12316 1
13457 12274 12317 1
13458 12275 12318 1
13459 12275 12319 1
13460 12275 12320 1
13461 12276 12321 1
13462 12276 12322 1
13463 12276 12323 1
13464 12277 12324 1
13465 12277 12325 1
13466 12277 12326 1
13467 12278 12327 1
13468 12278 12328 1
13469 12278 12329 1
13470 12279 12330 1
13471 12279 12331 1
13472 12279 12332 1
13473 12280 12333 1
13474 12280 12334 1
13475 12280 12335 1
13476 12281 12336 1
13477 12282 12337 1
13478 12282 12338 1
13479 12282 12339 1
13480 12283 12340 1
13481 12283 12341 1
13482 12283 12342 1
13483 12284 12343 1
13484 12285 12344 1
13485 12288 12345 1
13486 12288 12346 1
13487 12288 12347 1
13488 12289 12348 1
13489 12289 12349 1
13490 12289 12350 1
13491 12353 12352 un
13492 12354 12353 un
13493 12355 12354 un
13494 12356 12355 un
13495 12351 12352 un
13496 12351 12356 un
13497 12358 12357 1
13498 12359 12358 un
13499 12360 12359 1
13500 12354 12357 1
13501 12353 12360 1
13502 12362 12361 un
13503 12363 12362 un
13504 12364 12363 un
13505 12359 12361 un
13506 12358 12364 un
13507 12366 12365 un
13508 12367 12366 un
13509 12368 12367 un
13510 12364 12365 un
13511 12363 12368 un
13512 12370 12369 1
13513 12371 12370 1
13514 12372 12371 un
13515 12367 12369 1
13516 12366 12372 un
13517 12374 12373 1
13518 12375 12374 un
13519 12376 12375 1
13520 12370 12373 1
13521 12369 12376 1
13522 12378 12377 un
13523 12379 12378 un
13524 12380 12379 un
13525 12372 12377 un
13526 12371 12380 un
13527 12382 12381 1
13528 12383 12382 un
13529 12384 12383 1
13530 12379 12381 1
13531 12378 12384 1
13532 12386 12385 1
13533 12387 12386 1
13534 12388 12387 un
13535 12383 12385 1
13536 12382 12388 un
13537 12390 12389 un
13538 12391 12390 un
13539 12392 12391 un
13540 12388 12389 un
13541 12387 12392 un
13542 12394 12393 1
13543 12395 12394 1
13544 12396 12395 1
13545 12392 12393 1
13546 12391 12396 1
13547 12398 12397 1
13548 12399 12398 un
13549 12390 12399 un
13550 12396 12397 1
13551 12401 12400 un
13552 12402 12401 un
13553 12403 12402 un
13554 12399 12400 un
13555 12398 12403 un
13556 12356 12404 1
13557 12404 12405 1
13558 12351 12406 1
13559 12355 12407 1
13560 12352 12408 1
13561 12361 12409 1
13562 12362 12410 1
13563 12368 12411 1
13564 12375 12412 1
13565 12374 12413 1
13566 12380 12414 1
13567 12377 12415 1
13568 12384 12416 2
13569 12381 12417 2
13570 12403 12418 1
13571 12402 12419 1
13572 12357 12420 1
13573 12357 12421 1
13574 12360 12422 1
13575 12360 12423 1
13576 12365 12424 1
13577 12373 12425 1
13578 12373 12426 1
13579 12374 12427 1
13580 12375 12428 1
13581 12376 12429 1
13582 12376 12430 1
13583 12385 12431 1
13584 12385 12432 1
13585 12386 12433 1
13586 12386 12434 1
13587 12393 12435 1
13588 12393 12436 1
13589 12394 12437 1
13590 12394 12438 1
13591 12395 12439 1
13592 12395 12440 1
13593 12396 12441 1
13594 12397 12442 1
13595 12397 12443 1
13596 12400 12444 1
13597 12401 12445 1
13598 12404 12446 1
13599 12404 12447 1
13600 12405 12448 1
13601 12405 12449 1
13602 12405 12450 1
13603 12406 12451 1
13604 12406 12452 1
13605 12406 12453 1
13606 12407 12454 1
13607 12407 12455 1
13608 12407 12456 1
13609 12408 12457 1
13610 12408 12458 1
13611 12408 12459 1
13612 12409 12460 1
13613 12409 12461 1
13614 12409 12462 1
13615 12410 12463 1
13616 12410 12464 1
13617 12410 12465 1
13618 12411 12466 1
13619 12412 12467 1
13620 12412 12468 1
13621 12412 12469 1
13622 12413 12470 1
13623 12413 12471 1
13624 12413 12472 1
13625 12414 12473 1
13626 12415 12474 1
13627 12418 12475 1
13628 12418 12476 1
13629 12418 12477 1
13630 12419 12478 1
13631 12419 12479 1
13632 12419 12480 1
13633 12483 12482 un
13634 12484 12483 un
13635 12485 12484 un
13636 12486 12485 un
13637 12481 12482 un
13638 12481 12486 un
13639 12488 12487 1
13640 12489 12488 un
13641 12490 12489 1
13642 12484 12487 1
13643 12483 12490 1
13644 12492 12491 un
13645 12493 12492 un
13646 12494 12493 un
13647 12489 12491 un
13648 12488 12494 un
13649 12496 12495 un
13650 12497 12496 un
13651 12498 12497 un
13652 12494 12495 un
13653 12493 12498 un
13654 12500 12499 1
13655 12501 12500 1
13656 12502 12501 un
13657 12497 12499 1
13658 12496 12502 un
13659 12504 12503 1
13660 12505 12504 un
13661 12506 12505 1
13662 12500 12503 1
13663 12499 12506 1
13664 12508 12507 un
13665 12509 12508 un
13666 12510 12509 un
13667 12502 12507 un
13668 12501 12510 un
13669 12512 12511 1
13670 12513 12512 un
13671 12514 12513 1
13672 12509 12511 1
13673 12508 12514 1
13674 12516 12515 1
13675 12517 12516 1
13676 12518 12517 un
13677 12513 12515 1
13678 12512 12518 un
13679 12520 12519 un
13680 12521 12520 un
13681 12522 12521 un
13682 12518 12519 un
13683 12517 12522 un
13684 12524 12523 1
13685 12525 12524 1
13686 12526 12525 1
13687 12522 12523 1
13688 12521 12526 1
13689 12528 12527 1
13690 12529 12528 un
13691 12520 12529 un
13692 12526 12527 1
13693 12531 12530 un
13694 12532 12531 un
13695 12533 12532 un
13696 12529 12530 un
13697 12528 12533 un
13698 12486 12534 1
13699 12534 12535 1
13700 12481 12536 1
13701 12485 12537 1
13702 12482 12538 1
13703 12491 12539 1
13704 12492 12540 1
13705 12498 12541 1
13706 12505 12542 1
13707 12504 12543 1
13708 12510 12544 1
13709 12507 12545 1
13710 12514 12546 2
13711 12511 12547 2
13712 12533 12548 1
13713 12532 12549 1
13714 12487 12550 1
13715 12487 12551 1
13716 12490 12552 1
13717 12490 12553 1
13718 12495 12554 1
13719 12503 12555 1
13720 12503 12556 1
13721 12504 12557 1
13722 12505 12558 1
13723 12506 12559 1
13724 12506 12560 1
13725 12515 12561 1
13726 12515 12562 1
13727 12516 12563 1
13728 12516 12564 1
13729 12523 12565 1
13730 12523 12566 1
13731 12524 12567 1
13732 12524 12568 1
13733 12525 12569 1
13734 12525 12570 1
13735 12526 12571 1
13736 12527 12572 1
13737 12527 12573 1
13738 12530 12574 1
13739 12531 12575 1
13740 12534 12576 1
13741 12534 12577 1
13742 12535 12578 1
13743 12535 12579 1
13744 12535 12580 1
13745 12536 12581 1
13746 12536 12582 1
13747 12536 12583 1
13748 12537 12584 1
13749 12537 12585 1
13750 12537 12586 1
13751 12538 12587 1
13752 12538 12588 1
13753 12538 12589 1
13754 12539 12590 1
13755 12539 12591 1
13756 12539 12592 1
13757 12540 12593 1
13758 12540 12594 1
13759 12540 12595 1
13760 12541 12596 1
13761 12542 12597 1
13762 12542 12598 1
13763 12542 12599 1
13764 12543 12600 1
13765 12543 12601 1
13766 12543 12602 1
13767 12544 12603 1
13768 12545 12604 1
13769 12548 12605 1
13770 12548 12606 1
13771 12548 12607 1
13772 12549 12608 1
13773 12549 12609 1
13774 12549 12610 1
13775 12613 12612 un
13776 12614 12613 un
13777 12615 12614 un
13778 12616 12615 un
13779 12611 12612 un
13780 12611 12616 un
13781 12618 12617 1
13782 12619 12618 un
13783 12620 12619 1
13784 12614 12617 1
13785 12613 12620 1
13786 12622 12621 un
13787 12623 12622 un
13788 12624 12623 un
13789 12619 12621 un
13790 12618 12624 un
13791 12626 12625 un
13792 12627 12626 un
13793 12628 12627 un
13794 12624 12625 un
13795 12623 12628 un
13796 12630 12629 1
13797 12631 12630 1
13798 12632 12631 un
13799 12627 12629 1
13800 12626 12632 un
13801 12634 12633 1
13802 12635 12634 un
13803 12636 12635 1
13804 12630 12633 1
13805 12629 12636 1
13806 12638 12637 un
13807 12639 12638 un
13808 12640 12639 un
13809 12632 12637 un
13810 12631 12640 un
13811 12642 12641 1
13812 12643 12642 un
13813 12644 12643 1
13814 12639 12641 1
13815 12638 12644 1
13816 12646 12645 1
13817 12647 12646 1
13818 12648 12647 un
13819 12643 12645 1
13820 12642 12648 un
13821 12650 12649 un
13822 12651 12650 un
13823 12652 12651 un
13824 12648 12649 un
13825 12647 12652 un
13826 12654 12653 1
13827 12655 12654 1
13828 12656 12655 1
13829 12652 12653 1
13830 12651 12656 1
13831 12658 12657 1
13832 12659 12658 un
13833 12650 12659 un
13834 12656 12657 1
13835 12661 12660 un
13836 12662 12661 un
13837 12663 12662 un
13838 12659 12660 un
13839 12658 12663 un
13840 12616 12664 1
13841 12664 12665 1
13842 12611 12666 1
13843 12615 12667 1
13844 12612 12668 1
13845 12621 12669 1
13846 12622 12670 1
13847 12628 12671 1
13848 12635 12672 1
13849 12634 12673 1
13850 12640 12674 1
13851 12637 12675 1
13852 12644 12676 2
13853 12641 12677 2
13854 12663 12678 1
13855 12662 12679 1
13856 12617 12680 1
13857 12617 12681 1
13858 12620 12682 1
13859 12620 12683 1
13860 12625 12684 1
13861 12633 12685 1
13862 12633 12686 1
13863 12634 12687 1
13864 12635 12688 1
13865 12636 12689 1
13866 12636 12690 1
13867 12645 12691 1
13868 12645 12692 1
13869 12646 12693 1
13870 12646 12694 1
13871 12653 12695 1
13872 12653 12696 1
13873 12654 12697 1
13874 12654 12698 1
13875 12655 12699 1
13876 12655 12700 1
13877 12656 12701 1
13878 12657 12702 1
13879 12657 12703 1
13880 12660 12704 1
13881 12661 12705 1
13882 12664 12706 1
13883 12664 12707 1
13884 12665 12708 1
13885 12665 12709 1
13886 12665 12710 1
13887 12666 12711 1
13888 12666 12712 1
13889 12666 12713 1
13890 12667 12714 1
13891 12667 12715 1
13892 12667 12716 1
13893 12668 12717 1
13894 12668 12718 1
13895 12668 12719 1
13896 12669 12720 1
13897 12669 12721 1
13898 12669 12722 1
13899 12670 12723 1
13900 12670 12724 1
13901 12670 12725 1
13902 12671 12726 1
13903 12672 12727 1
13904 12672 12728 1
13905 12672 12729 1
13906 12673 12730 1
13907 12673 12731 1
13908 12673 12732 1
13909 12674 12733 1
13910 12675 12734 1
13911 12678 12735 1
13912 12678 12736 1
13913 12678 12737 1
13914 12679 12738 1
13915 12679 12739 1
13916 12679 12740 1
13917 12743 12742 un
13918 12744 12743 un
13919 12745 12744 un
13920 12746 12745 un
13921 12741 12742 un
13922 12741 12746 un
13923 12748 12747 1
13924 12749 12748 un
13925 12750 12749 1
13926 12744 12747 1
13927 12743 12750 1
13928 12752 12751 un
13929 12753 12752 un
13930 12754 12753 un
13931 12749 12751 un
13932 12748 12754 un
13933 12756 12755 un
13934 12757 12756 un
13935 12758 12757 un
13936 12754 12755 un
13937 12753 12758 un
13938 12760 12759 1
13939 12761 12760 1
13940 12762 12761 un
13941 12757 12759 1
13942 12756 12762 un
13943 12764 12763 1
13944 12765 12764 un
13945 12766 12765 1
13946 12760 12763 1
13947 12759 12766 1
13948 12768 12767 un
13949 12769 12768 un
13950 12770 12769 un
13951 12762 12767 un
13952 12761 12770 un
13953 12772 12771 1
13954 12773 12772 un
13955 12774 12773 1
13956 12769 12771 1
13957 12768 12774 1
13958 12776 12775 1
13959 12777 12776 1
13960 12778 12777 un
13961 12773 12775 1
13962 12772 12778 un
13963 12780 12779 un
13964 12781 12780 un
13965 12782 12781 un
13966 12778 12779 un
13967 12777 12782 un
13968 12784 12783 1
13969 12785 12784 1
13970 12786 12785 1
13971 12782 12783 1
13972 12781 12786 1
13973 12788 12787 1
13974 12789 12788 un
13975 12780 12789 un
13976 12786 12787 1
13977 12791 12790 un
13978 12792 12791 un
13979 12793 12792 un
13980 12789 12790 un
13981 12788 12793 un
13982 12746 12794 1
13983 12794 12795 1
13984 12741 12796 1
13985 12745 12797 1
13986 12742 12798 1
13987 12751 12799 1
13988 12752 12800 1
13989 12758 12801 1
13990 12765 12802 1
13991 12764 12803 1
13992 12770 12804 1
13993 12767 12805 1
13994 12774 12806 2
13995 12771 12807 2
13996 12793 12808 1
13997 12792 12809 1
13998 12747 12810 1
13999 12747 12811 1
14000 12750 12812 1
14001 12750 12813 1
14002 12755 12814 1
14003 12763 12815 1
14004 12763 12816 1
14005 12764 12817 1
14006 12765 12818 1
14007 12766 12819 1
14008 12766 12820 1
14009 12775 12821 1
14010 12775 12822 1
14011 12776 12823 1
14012 12776 12824 1
14013 12783 12825 1
14014 12783 12826 1
14015 12784 12827 1
14016 12784 12828 1
14017 12785 12829 1
14018 12785 12830 1
14019 12786 12831 1
14020 12787 12832 1
14021 12787 12833 1
14022 12790 12834 1
14023 12791 12835 1
14024 12794 12836 1
14025 12794 12837 1
14026 12795 12838 1
14027 12795 12839 1
14028 12795 12840 1
14029 12796 12841 1
14030 12796 12842 1
14031 12796 12843 1
14032 12797 12844 1
14033 12797 12845 1
14034 12797 12846 1
14035 12798 12847 1
14036 12798 12848 1
14037 12798 12849 1
14038 12799 12850 1
14039 12799 12851 1
14040 12799 12852 1
14041 12800 12853 1
14042 12800 12854 1
14043 12800 12855 1
14044 12801 12856 1
14045 12802 12857 1
14046 12802 12858 1
14047 12802 12859 1
14048 12803 12860 1
14049 12803 12861 1
14050 12803 12862 1
14051 12804 12863 1
14052 12805 12864 1
14053 12808 12865 1
14054 12808 12866 1
14055 12808 12867 1
14056 12809 12868 1
14057 12809 12869 1
14058 12809 12870 1
14059 12873 12872 un
14060 12874 12873 un
14061 12875 12874 un
14062 12876 12875 un
14063 12871 12872 un
14064 12871 12876 un
14065 12878 12877 1
14066 12879 12878 un
14067 12880 12879 1
14068 12874 12877 1
14069 12873 12880 1
14070 12882 12881 un
14071 12883 12882 un
14072 12884 12883 un
14073 12879 12881 un
14074 12878 12884 un
14075 12886 12885 un
14076 12887 12886 un
14077 12888 12887 un
14078 12884 12885 un
14079 12883 12888 un
14080 12890 12889 1
14081 12891 12890 1
14082 12892 12891 un
14083 12887 12889 1
14084 12886 12892 un
14085 12894 12893 1
14086 12895 12894 un
14087 12896 12895 1
14088 12890 12893 1
14089 12889 12896 1
14090 12898 12897 un
14091 12899 12898 un
14092 12900 12899 un
14093 12892 12897 un
14094 12891 12900 un
14095 12902 12901 1
14096 12903 12902 un
14097 12904 12903 1
14098 12899 12901 1
14099 12898 12904 1
14100 12906 12905 1
14101 12907 12906 1
14102 12908 12907 un
14103 12903 12905 1
14104 12902 12908 un
14105 12910 12909 un
14106 12911 12910 un
14107 12912 12911 un
14108 12908 12909 un
14109 12907 12912 un
14110 12914 12913 1
14111 12915 12914 1
14112 12916 12915 1
14113 12912 12913 1
14114 12911 12916 1
14115 12918 12917 1
14116 12919 12918 un
14117 12910 12919 un
14118 12916 12917 1
14119 12921 12920 un
14120 12922 12921 un
14121 12923 12922 un
14122 12919 12920 un
14123 12918 12923 un
14124 12876 12924 1
14125 12924 12925 1
14126 12871 12926 1
14127 12875 12927 1
14128 12872 12928 1
14129 12881 12929 1
14130 12882 12930 1
14131 12888 12931 1
14132 12895 12932 1
14133 12894 12933 1
14134 12900 12934 1
14135 12897 12935 1
14136 12904 12936 2
14137 12901 12937 2
14138 12923 12938 1
14139 12922 12939 1
14140 12877 12940 1
14141 12877 12941 1
14142 12880 12942 1
14143 12880 12943 1
14144 12885 12944 1
14145 12893 12945 1
14146 12893 12946 1
14147 12894 12947 1
14148 12895 12948 1
14149 12896 12949 1
14150 12896 12950 1
14151 12905 12951 1
14152 12905 12952 1
14153 12906 12953 1
14154 12906 12954 1
14155 12913 12955 1
14156 12913 12956 1
14157 12914 12957 1
14158 12914 12958 1
14159 12915 12959 1
14160 12915 12960 1
14161 12916 12961 1
14162 12917 12962 1
14163 12917 12963 1
14164 12920 12964 1
14165 12921 12965 1
14166 12924 12966 1
14167 12924 12967 1
14168 12925 12968 1
14169 12925 12969 1
14170 12925 12970 1
14171 12926 12971 1
14172 12926 12972 1
14173 12926 12973 1
14174 12927 12974 1
14175 12927 12975 1
14176 12927 12976 1
14177 12928 12977 1
14178 12928 12978 1
14179 12928 12979 1
14180 12929 12980 1
14181 12929 12981 1
14182 12929 12982 1
14183 12930 12983 1
14184 12930 12984 1
14185 12930 12985 1
14186 12931 12986 1
14187 12932 12987 1
14188 12932 12988 1
14189 12932 12989 1
14190 12933 12990 1
14191 12933 12991 1
14192 12933 12992 1
14193 12934 12993 1
14194 12935 12994 1
14195 12938 12995 1
14196 12938 12996 1
14197 12938 12997 1
14198 12939 12998 1
14199 12939 12999 1
14200 12939 13000 1
14201 13003 13002 un
14202 13004 13003 un
14203 13005 13004 un
14204 13006 13005 un
14205 13001 13002 un
14206 13001 13006 un
14207 13008 13007 1
14208 13009 13008 un
14209 13010 13009 1
14210 13004 13007 1
14211 13003 13010 1
14212 13012 13011 un
14213 13013 13012 un
14214 13014 13013 un
14215 13009 13011 un
14216 13008 13014 un
14217 13016 13015 un
14218 13017 13016 un
14219 13018 13017 un
14220 13014 13015 un
14221 13013 13018 un
14222 13020 13019 1
14223 13021 13020 1
14224 13022 13021 un
14225 13017 13019 1
14226 13016 13022 un
14227 13024 13023 1
14228 13025 13024 un
14229 13026 13025 1
14230 13020 13023 1
14231 13019 13026 1
14232 13028 13027 un
14233 13029 13028 un
14234 13030 13029 un
14235 13022 13027 un
14236 13021 13030 un
14237 13032 13031 1
14238 13033 13032 un
14239 13034 13033 1
14240 13029 13031 1
14241 13028 13034 1
14242 13036 13035 1
14243 13037 13036 1
14244 13038 13037 un
14245 13033 13035 1
14246 13032 13038 un
14247 13040 13039 un
14248 13041 13040 un
14249 13042 13041 un
14250 13038 13039 un
14251 13037 13042 un
14252 13044 13043 1
14253 13045 13044 1
14254 13046 13045 1
14255 13042 13043 1
14256 13041 13046 1
14257 13048 13047 1
14258 13049 13048 un
14259 13040 13049 un
14260 13046 13047 1
14261 13051 13050 un
14262 13052 13051 un
14263 13053 13052 un
14264 13049 13050 un
14265 13048 13053 un
14266 13006 13054 1
14267 13054 13055 1
14268 13001 13056 1
14269 13005 13057 1
14270 13002 13058 1
14271 13011 13059 1
14272 13012 13060 1
14273 13018 13061 1
14274 13025 13062 1
14275 13024 13063 1
14276 13030 13064 1
14277 13027 13065 1
14278 13034 13066 2
14279 13031 13067 2
14280 13053 13068 1
14281 13052 13069 1
14282 13007 13070 1
14283 13007 13071 1
14284 13010 13072 1
14285 13010 13073 1
14286 13015 13074 1
14287 13023 13075 1
14288 13023 13076 1
14289 13024 13077 1
14290 13025 13078 1
14291 13026 13079 1
14292 13026 13080 1
14293 13035 13081 1
14294 13035 13082 1
14295 13036 13083 1
14296 13036 13084 1
14297 13043 13085 1
14298 13043 13086 1
14299 13044 13087 1
14300 13044 13088 1
14301 13045 13089 1
14302 13045 13090 1
14303 13046 13091 1
14304 13047 13092 1
14305 13047 13093 1
14306 13050 13094 1
14307 13051 13095 1
14308 13054 13096 1
14309 13054 13097 1
14310 13055 13098 1
14311 13055 13099 1
14312 13055 13100 1
14313 13056 13101 1
14314 13056 13102 1
14315 13056 13103 1
14316 13057 13104 1
14317 13057 13105 1
14318 13057 13106 1
14319 13058 13107 1
14320 13058 13108 1
14321 13058 13109 1
14322 13059 13110 1
14323 13059 13111 1
14324 13059 13112 1
14325 13060 13113 1
14326 13060 13114 1
14327 13060 13115 1
14328 13061 13116 1
14329 13062 13117 1
14330 13062 13118 1
14331 13062 13119 1
14332 13063 13120 1
14333 13063 13121 1
14334 13063 13122 1
14335 13064 13123 1
14336 13065 13124 1
14337 13068 13125 1
14338 13068 13126 1
14339 13068 13127 1
14340 13069 13128 1
14341 13069 13129 1
14342 13069 13130 1
14343 13133 13132 un
14344 13134 13133 un
14345 13135 13134 un
14346 13136 13135 un
14347 13131 13132 un
14348 13131 13136 un
14349 13138 13137 1
14350 13139 13138 un
14351 13140 13139 1
14352 13134 13137 1
14353 13133 13140 1
14354 13142 13141 un
14355 13143 13142 un
14356 13144 13143 un
14357 13139 13141 un
14358 13138 13144 un
14359 13146 13145 un
14360 13147 13146 un
14361 13148 13147 un
14362 13144 13145 un
14363 13143 13148 un
14364 13150 13149 1
14365 13151 13150 1
14366 13152 13151 un
14367 13147 13149 1
14368 13146 13152 un
14369 13154 13153 1
14370 13155 13154 un
14371 13156 13155 1
14372 13150 13153 1
14373 13149 13156 1
14374 13158 13157 un
14375 13159 13158 un
14376 13160 13159 un
14377 13152 13157 un
14378 13151 13160 un
14379 13162 13161 1
14380 13163 13162 un
14381 13164 13163 1
14382 13159 13161 1
14383 13158 13164 1
14384 13166 13165 1
14385 13167 13166 1
14386 13168 13167 un
14387 13163 13165 1
14388 13162 13168 un
14389 13170 13169 un
14390 13171 13170 un
14391 13172 13171 un
14392 13168 13169 un
14393 13167 13172 un
14394 13174 13173 1
14395 13175 13174 1
14396 13176 13175 1
14397 13172 13173 1
14398 13171 13176 1
14399 13178 13177 1
14400 13179 13178 un
14401 13170 13179 un
14402 13176 13177 1
14403 13181 13180 un
14404 13182 13181 un
14405 13183 13182 un
14406 13179 13180 un
14407 13178 13183 un
14408 13136 13184 1
14409 13184 13185 1
14410 13131 13186 1
14411 13135 13187 1
14412 13132 13188 1
14413 13141 13189 1
14414 13142 13190 1
14415 13148 13191 1
14416 13155 13192 1
14417 13154 13193 1
14418 13160 13194 1
14419 13157 13195 1
14420 13164 13196 2
14421 13161 13197 2
14422 13183 13198 1
14423 13182 13199 1
14424 13137 13200 1
14425 13137 13201 1
14426 13140 13202 1
14427 13140 13203 1
14428 13145 13204 1
14429 13153 13205 1
14430 13153 13206 1
14431 13154 13207 1
14432 13155 13208 1
14433 13156 13209 1
14434 13156 13210 1
14435 13165 13211 1
14436 13165 13212 1
14437 13166 13213 1
14438 13166 13214 1
14439 13173 13215 1
14440 13173 13216 1
14441 13174 13217 1
14442 13174 13218 1
14443 13175 13219 1
14444 13175 13220 1
14445 13176 13221 1
14446 13177 13222 1
14447 13177 13223 1
14448 13180 13224 1
14449 13181 13225 1
14450 13184 13226 1
14451 13184 13227 1
14452 13185 13228 1
14453 13185 13229 1
14454 13185 13230 1
14455 13186 13231 1
14456 13186 13232 1
14457 13186 13233 1
14458 13187 13234 1
14459 13187 13235 1
14460 13187 13236 1
14461 13188 13237 1
14462 13188 13238 1
14463 13188 13239 1
14464 13189 13240 1
14465 13189 13241 1
14466 13189 13242 1
14467 13190 13243 1
14468 13190 13244 1
14469 13190 13245 1
14470 13191 13246 1
14471 13192 13247 1
14472 13192 13248 1
14473 13192 13249 1
14474 13193 13250 1
14475 13193 13251 1
14476 13193 13252 1
14477 13194 13253 1
14478 13195 13254 1
14479 13198 13255 1
14480 13198 13256 1
14481 13198 13257 1
14482 13199 13258 1
14483 13199 13259 1
14484 13199 13260 1
14485 13263 13262 un
14486 13264 13263 un
14487 13265 13264 un
14488 13266 13265 un
14489 13261 13262 un
14490 13261 13266 un
14491 13268 13267 1
14492 13269 13268 un
14493 13270 13269 1
14494 13264 13267 1
14495 13263 13270 1
14496 13272 13271 un
14497 13273 13272 un
14498 13274 13273 un
14499 13269 13271 un
14500 13268 13274 un
14501 13276 13275 un
14502 13277 13276 un
14503 13278 13277 un
14504 13274 13275 un
14505 13273 13278 un
14506 13280 13279 1
14507 13281 13280 1
14508 13282 13281 un
14509 13277 13279 1
14510 13276 13282 un
14511 13284 13283 1
14512 13285 13284 un
14513 13286 13285 1
14514 13280 13283 1
14515 13279 13286 1
14516 13288 13287 un
14517 13289 13288 un
14518 13290 13289 un
14519 13282 13287 un
14520 13281 13290 un
14521 13292 13291 1
14522 13293 13292 un
14523 13294 13293 1
14524 13289 13291 1
14525 13288 13294 1
14526 13296 13295 1
14527 13297 13296 1
14528 13298 13297 un
14529 13293 13295 1
14530 13292 13298 un
14531 13300 13299 un
14532 13301 13300 un
14533 13302 13301 un
14534 13298 13299 un
14535 13297 13302 un
14536 13304 13303 1
14537 13305 13304 1
14538 13306 13305 1
14539 13302 13303 1
14540 13301 13306 1
14541 13308 13307 1
14542 13309 13308 un
14543 13300 13309 un
14544 13306 13307 1
14545 13311 13310 un
14546 13312 13311 un
14547 13313 13312 un
14548 13309 13310 un
14549 13308 13313 un
14550 13266 13314 1
14551 13314 13315 1
14552 13261 13316 1
14553 13265 13317 1
14554 13262 13318 1
14555 13271 13319 1
14556 13272 13320 1
14557 13278 13321 1
14558 13285 13322 1
14559 13284 13323 1
14560 13290 13324 1
14561 13287 13325 1
14562 13294 13326 2
14563 13291 13327 2
14564 13313 13328 1
14565 13312 13329 1
14566 13267 13330 1
14567 13267 13331 1
14568 13270 13332 1
14569 13270 13333 1
14570 13275 13334 1
14571 13283 13335 1
14572 13283 13336 1
14573 13284 13337 1
14574 13285 13338 1
14575 13286 13339 1
14576 13286 13340 1
14577 13295 13341 1
14578 13295 13342 1
14579 13296 13343 1
14580 13296 13344 1
14581 13303 13345 1
14582 13303 13346 1
14583 13304 13347 1
14584 13304 13348 1
14585 13305 13349 1
14586 13305 13350 1
14587 13306 13351 1
14588 13307 13352 1
14589 13307 13353 1
14590 13310 13354 1
14591 13311 13355 1
14592 13314 13356 1
14593 13314 13357 1
14594 13315 13358 1
14595 13315 13359 1
14596 13315 13360 1
14597 13316 13361 1
14598 13316 13362 1
14599 13316 13363 1
14600 13317 13364 1
14601 13317 13365 1
14602 13317 13366 1
14603 13318 13367 1
14604 13318 13368 1
14605 13318 13369 1
14606 13319 13370 1
14607 13319 13371 1
14608 13319 13372 1
14609 13320 13373 1
14610 13320 13374 1
14611 13320 13375 1
14612 13321 13376 1
14613 13322 13377 1
14614 13322 13378 1
14615 13322 13379 1
14616 13323 13380 1
14617 13323 13381 1
14618 13323 13382 1
14619 13324 13383 1
14620 13325 13384 1
14621 13328 13385 1
14622 13328 13386 1
14623 13328 13387 1
14624 13329 13388 1
14625 13329 13389 1
14626 13329 13390 1
14627 13393 13392 un
14628 13394 13393 un
14629 13395 13394 un
14630 13396 13395 un
14631 13391 13392 un
14632 13391 13396 un
14633 13398 13397 1
14634 13399 13398 un
14635 13400 13399 1
14636 13394 13397 1
14637 13393 13400 1
14638 13402 13401 un
14639 13403 13402 un
14640 13404 13403 un
14641 13399 13401 un
14642 13398 13404 un
14643 13406 13405 un
14644 13407 13406 un
14645 13408 13407 un
14646 13404 13405 un
14647 13403 13408 un
14648 13410 13409 1
14649 13411 13410 1
14650 13412 13411 un
14651 13407 13409 1
14652 13406 13412 un
14653 13414 13413 1
14654 13415 13414 un
14655 13416 13415 1
14656 13410 13413 1
14657 13409 13416 1
14658 13418 13417 un
14659 13419 13418 un
14660 13420 13419 un
14661 13412 13417 un
14662 13411 13420 un
14663 13422 13421 1
14664 13423 13422 un
14665 13424 13423 1
14666 13419 13421 1
14667 13418 13424 1
14668 13426 13425 1
14669 13427 13426 1
14670 13428 13427 un
14671 13423 13425 1
14672 13422 13428 un
14673 13430 13429 un
14674 13431 13430 un
14675 13432 13431 un
14676 13428 13429 un
14677 13427 13432 un
14678 13434 13433 1
14679 13435 13434 1
14680 13436 13435 1
14681 13432 13433 1
14682 13431 13436 1
14683 13438 13437 1
14684 13439 13438 un
14685 13430 13439 un
14686 13436 13437 1
14687 13441 13440 un
14688 13442 13441 un
14689 13443 13442 un
14690 13439 13440 un
14691 13438 13443 un
14692 13396 13444 1
14693 13444 13445 1
14694 13391 13446 1
14695 13395 13447 1
14696 13392 13448 1
14697 13401 13449 1
14698 13402 13450 1
14699 13408 13451 1
14700 13415 13452 1
14701 13414 13453 1
14702 13420 13454 1
14703 13417 13455 1
14704 13424 13456 2
14705 13421 13457 2
14706 13443 13458 1
14707 13442 13459 1
14708 13397 13460 1
14709 13397 13461 1
14710 13400 13462 1
14711 13400 13463 1
14712 13405 13464 1
14713 13413 13465 1
14714 13413 13466 1
14715 13414 13467 1
14716 13415 13468 1
14717 13416 13469 1
14718 13416 13470 1
14719 13425 13471 1
14720 13425 13472 1
14721 13426 13473 1
14722 13426 13474 1
14723 13433 13475 1
14724 13433 13476 1
14725 13434 13477 1
14726 13434 13478 1
14727 13435 13479 1
14728 13435 13480 1
14729 13436 13481 1
14730 13437 13482 1
14731 13437 13483 1
14732 13440 13484 1
14733 13441 13485 1
14734 13444 13486 1
14735 13444 13487 1
14736 13445 13488 1
14737 13445 13489 1
14738 13445 13490 1
14739 13446 13491 1
14740 13446 13492 1
14741 13446 13493 1
14742 13447 13494 1
14743 13447 13495 1
14744 13447 13496 1
14745 13448 13497 1
14746 13448 13498 1
14747 13448 13499 1
14748 13449 13500 1
14749 13449 13501 1
14750 13449 13502 1
14751 13450 13503 1
14752 13450 13504 1
14753 13450 13505 1
14754 13451 13506 1
14755 13452 13507 1
14756 13452 13508 1
14757 13452 13509 1
14758 13453 13510 1
14759 13453 13511 1
14760 13453 13512 1
14761 13454 13513 1
14762 13455 13514 1
14763 13458 13515 1
14764 13458 13516 1
14765 13458 13517 1
14766 13459 13518 1
14767 13459 13519 1
14768 13459 13520 1
14769 13523 13522 un
14770 13524 13523 un
14771 13525 13524 un
14772 13526 13525 un
14773 13521 13522 un
14774 13521 13526 un
14775 13528 13527 1
14776 13529 13528 un
14777 13530 13529 1
14778 13524 13527 1
14779 13523 13530 1
14780 13532 13531 un
14781 13533 13532 un
14782 13534 13533 un
14783 13529 13531 un
14784 13528 13534 un
14785 13536 13535 un
14786 13537 13536 un
14787 13538 13537 un
14788 13534 13535 un
14789 13533 13538 un
14790 13540 13539 1
14791 13541 13540 1
14792 13542 13541 un
14793 13537 13539 1
14794 13536 13542 un
14795 13544 13543 1
14796 13545 13544 un
14797 13546 13545 1
14798 13540 13543 1
14799 13539 13546 1
14800 13548 13547 un
14801 13549 13548 un
14802 13550 13549 un
14803 13542 13547 un
14804 13541 13550 un
14805 13552 13551 1
14806 13553 13552 un
14807 13554 13553 1
14808 13549 13551 1
14809 13548 13554 1
14810 13556 13555 1
14811 13557 13556 1
14812 13558 13557 un
14813 13553 13555 1
14814 13552 13558 un
14815 13560 13559 un
14816 13561 13560 un
14817 13562 13561 un
14818 13558 13559 un
14819 13557 13562 un
14820 13564 13563 1
14821 13565 13564 1
14822 13566 13565 1
14823 13562 13563 1
14824 13561 13566 1
14825 13568 13567 1
14826 13569 13568 un
14827 13560 13569 un
14828 13566 13567 1
14829 13571 13570 un
14830 13572 13571 un
14831 13573 13572 un
14832 13569 13570 un
14833 13568 13573 un
14834 13526 13574 1
14835 13574 13575 1
14836 13521 13576 1
14837 13525 13577 1
14838 13522 13578 1
14839 13531 13579 1
14840 13532 13580 1
14841 13538 13581 1
14842 13545 13582 1
14843 13544 13583 1
14844 13550 13584 1
14845 13547 13585 1
14846 13554 13586 2
14847 13551 13587 2
14848 13573 13588 1
14849 13572 13589 1
14850 13527 13590 1
14851 13527 13591 1
14852 13530 13592 1
14853 13530 13593 1
14854 13535 13594 1
14855 13543 13595 1
14856 13543 13596 1
14857 13544 13597 1
14858 13545 13598 1
14859 13546 13599 1
14860 13546 13600 1
14861 13555 13601 1
14862 13555 13602 1
14863 13556 13603 1
14864 13556 13604 1
14865 13563 13605 1
14866 13563 13606 1
14867 13564 13607 1
14868 13564 13608 1
14869 13565 13609 1
14870 13565 13610 1
14871 13566 13611 1
14872 13567 13612 1
14873 13567 13613 1
14874 13570 13614 1
14875 13571 13615 1
14876 13574 13616 1
14877 13574 13617 1
14878 13575 13618 1
14879 13575 13619 1
14880 13575 13620 1
14881 13576 13621 1
14882 13576 13622 1
14883 13576 13623 1
14884 13577 13624 1
14885 13577 13625 1
14886 13577 13626 1
14887 13578 13627 1
14888 13578 13628 1
14889 13578 13629 1
14890 13579 13630 1
14891 13579 13631 1
14892 13579 13632 1
14893 13580 13633 1
14894 13580 13634 1
14895 13580 13635 1
14896 13581 13636 1
14897 13582 13637 1
14898 13582 13638 1
14899 13582 13639 1
14900 13583 13640 1
14901 13583 13641 1
14902 13583 13642 1
14903 13584 13643 1
14904 13585 13644 1
14905 13588 13645 1
14906 13588 13646 1
14907 13588 13647 1
14908 13589 13648 1
14909 13589 13649 1
14910 13589 13650 1
14911 13653 13652 un
14912 13654 13653 un
14913 13655 13654 un
14914 13656 13655 un
14915 13651 13652 un
14916 13651 13656 un
14917 13658 13657 1
14918 13659 13658 un
14919 13660 13659 1
14920 13654 13657 1
14921 13653 13660 1
14922 13662 13661 un
14923 13663 13662 un
14924 13664 13663 un
14925 13659 13661 un
14926 13658 13664 un
14927 13666 13665 un
14928 13667 13666 un
14929 13668 13667 un
14930 13664 13665 un
14931 13663 13668 un
14932 13670 13669 1
14933 13671 13670 1
14934 13672 13671 un
14935 13667 13669 1
14936 13666 13672 un
14937 13674 13673 1
14938 13675 13674 un
14939 13676 13675 1
14940 13670 13673 1
14941 13669 13676 1
14942 13678 13677 un
14943 13679 13678 un
14944 13680 13679 un
14945 13672 13677 un
14946 13671 13680 un
14947 13682 13681 1
14948 13683 13682 un
14949 13684 13683 1
14950 13679 13681 1
14951 13678 13684 1
14952 13686 13685 1
14953 13687 13686 1
14954 13688 13687 un
14955 13683 13685 1
14956 13682 13688 un
14957 13690 13689 un
14958 13691 13690 un
14959 13692 13691 un
14960 13688 13689 un
14961 13687 13692 un
14962 13694 13693 1
14963 13695 13694 1
14964 13696 13695 1
14965 13692 13693 1
14966 13691 13696 1
14967 13698 13697 1
14968 13699 13698 un
14969 13690 13699 un
14970 13696 13697 1
14971 13701 13700 un
14972 13702 13701 un
14973 13703 13702 un
14974 13699 13700 un
14975 13698 13703 un
14976 13656 13704 1
14977 13704 13705 1
14978 13651 13706 1
14979 13655 13707 1
14980 13652 13708 1
14981 13661 13709 1
14982 13662 13710 1
14983 13668 13711 1
14984 13675 13712 1
14985 13674 13713 1
14986 13680 13714 1
14987 13677 13715 1
14988 13684 13716 2
14989 13681 13717 2
14990 13703 13718 1
14991 13702 13719 1
14992 13657 13720 1
14993 13657 13721 1
14994 13660 13722 1
14995 13660 13723 1
14996 13665 13724 1
14997 13673 13725 1
14998 13673 13726 1
14999 13674 13727 1
15000 13675 13728 1
15001 13676 13729 1
15002 13676 13730 1
15003 13685 13731 1
15004 13685 13732 1
15005 13686 13733 1
15006 13686 13734 1
15007 13693 13735 1
15008 13693 13736 1
15009 13694 13737 1
15010 13694 13738 1
15011 13695 13739 1
15012 13695 13740 1
15013 13696 13741 1
15014 13697 13742 1
15015 13697 13743 1
15016 13700 13744 1
15017 13701 13745 1
15018 13704 13746 1
15019 13704 13747 1
15020 13705 13748 1
15021 13705 13749 1
15022 13705 13750 1
15023 13706 13751 1
15024 13706 13752 1
15025 13706 13753 1
15026 13707 13754 1
15027 13707 13755 1
15028 13707 13756 1
15029 13708 13757 1
15030 13708 13758 1
15031 13708 13759 1
15032 13709 13760 1
15033 13709 13761 1
15034 13709 13762 1
15035 13710 13763 1
15036 13710 13764 1
15037 13710 13765 1
15038 13711 13766 1
15039 13712 13767 1
15040 13712 13768 1
15041 13712 13769 1
15042 13713 13770 1
15043 13713 13771 1
15044 13713 13772 1
15045 13714 13773 1
15046 13715 13774 1
15047 13718 13775 1
15048 13718 13776 1
15049 13718 13777 1
15050 13719 13778 1
15051 13719 13779 1
15052 13719 13780 1
15053 13783 13782 un
15054 13784 13783 un
15055 13785 13784 un
15056 13786 13785 un
15057 13781 13782 un
15058 13781 13786 un
15059 13788 13787 1
15060 13789 13788 un
15061 13790 13789 1
15062 13784 13787 1
15063 13783 13790 1
15064 13792 13791 un
15065 13793 13792 un
15066 13794 13793 un
15067 13789 13791 un
15068 13788 13794 un
15069 13796 13795 un
15070 13797 13796 un
15071 13798 13797 un
15072 13794 13795 un
15073 13793 13798 un
15074 13800 13799 1
15075 13801 13800 1
15076 13802 13801 un
15077 13797 13799 1
15078 13796 13802 un
15079 13804 13803 1
15080 13805 13804 un
15081 13806 13805 1
15082 13800 13803 1
15083 13799 13806 1
15084 13808 13807 un
15085 13809 13808 un
15086 13810 13809 un
15087 13802 13807 un
15088 13801 13810 un
15089 13812 13811 1
15090 13813 13812 un
15091 13814 13813 1
15092 13809 13811 1
15093 13808 13814 1
15094 13816 13815 1
15095 13817 13816 1
15096 13818 13817 un
15097 13813 13815 1
15098 13812 13818 un
15099 13820 13819 un
15100 13821 13820 un
15101 13822 13821 un
15102 13818 13819 un
15103 13817 13822 un
15104 13824 13823 1
15105 13825 13824 1
15106 13826 13825 1
15107 13822 13823 1
15108 13821 13826 1
15109 13828 13827 1
15110 13829 13828 un
15111 13820 13829 un
15112 13826 13827 1
15113 13831 13830 un
15114 13832 13831 un
15115 13833 13832 un
15116 13829 13830 un
15117 13828 13833 un
15118 13786 13834 1
15119 13834 13835 1
15120 13781 13836 1
15121 13785 13837 1
15122 13782 13838 1
15123 13791 13839 1
15124 13792 13840 1
15125 13798 13841 1
15126 13805 13842 1
15127 13804 13843 1
15128 13810 13844 1
15129 13807 13845 1
15130 13814 13846 2
15131 13811 13847 2
15132 13833 13848 1
15133 13832 13849 1
15134 13787 13850 1
15135 13787 13851 1
15136 13790 13852 1
15137 13790 13853 1
15138 13795 13854 1
15139 13803 13855 1
15140 13803 13856 1
15141 13804 13857 1
15142 13805 13858 1
15143 13806 13859 1
15144 13806 13860 1
15145 13815 13861 1
15146 13815 13862 1
15147 13816 13863 1
15148 13816 13864 1
15149 13823 13865 1
15150 13823 13866 1
15151 13824 13867 1
15152 13824 13868 1
15153 13825 13869 1
15154 13825 13870 1
15155 13826 13871 1
15156 13827 13872 1
15157 13827 13873 1
15158 13830 13874 1
15159 13831 13875 1
15160 13834 13876 1
15161 13834 13877 1
15162 13835 13878 1
15163 13835 13879 1
15164 13835 13880 1
15165 13836 13881 1
15166 13836 13882 1
15167 13836 13883 1
15168 13837 13884 1
15169 13837 13885 1
15170 13837 13886 1
15171 13838 13887 1
15172 13838 13888 1
15173 13838 13889 1
15174 13839 13890 1
15175 13839 13891 1
15176 13839 13892 1
15177 13840 13893 1
15178 13840 13894 1
15179 13840 13895 1
15180 13841 13896 1
15181 13842 13897 1
15182 13842 13898 1
15183 13842 13899 1
15184 13843 13900 1
15185 13843 13901 1
15186 13843 13902 1
15187 13844 13903 1
15188 13845 13904 1
15189 13848 13905 1
15190 13848 13906 1
15191 13848 13907 1
15192 13849 13908 1
15193 13849 13909 1
15194 13849 13910 1
15195 13913 13912 un
15196 13914 13913 un
15197 13915 13914 un
15198 13916 13915 un
15199 13911 13912 un
15200 13911 13916 un
15201 13918 13917 1
15202 13919 13918 un
15203 13920 13919 1
15204 13914 13917 1
15205 13913 13920 1
15206 13922 13921 un
15207 13923 13922 un
15208 13924 13923 un
15209 13919 13921 un
15210 13918 13924 un
15211 13926 13925 un
15212 13927 13926 un
15213 13928 13927 un
15214 13924 13925 un
15215 13923 13928 un
15216 13930 13929 1
15217 13931 13930 1
15218 13932 13931 un
15219 13927 13929 1
15220 13926 13932 un
15221 13934 13933 1
15222 13935 13934 un
15223 13936 13935 1
15224 13930 13933 1
15225 13929 13936 1
15226 13938 13937 un
15227 13939 13938 un
15228 13940 13939 un
15229 13932 13937 un
15230 13931 13940 un
15231 13942 13941 1
15232 13943 13942 un
15233 13944 13943 1
15234 13939 13941 1
15235 13938 13944 1
15236 13946 13945 1
15237 13947 13946 1
15238 13948 13947 un
15239 13943 13945 1
15240 13942 13948 un
15241 13950 13949 un
15242 13951 13950 un
15243 13952 13951 un
15244 13948 13949 un
15245 13947 13952 un
15246 13954 13953 1
15247 13955 13954 1
15248 13956 13955 1
15249 13952 13953 1
15250 13951 13956 1
15251 13958 13957 1
15252 13959 13958 un
15253 13950 13959 un
15254 13956 13957 1
15255 13961 13960 un
15256 13962 13961 un
15257 13963 13962 un
15258 13959 13960 un
15259 13958 13963 un
15260 13916 13964 1
15261 13964 13965 1
15262 13911 13966 1
15263 13915 13967 1
15264 13912 13968 1
15265 13921 13969 1
15266 13922 13970 1
15267 13928 13971 1
15268 13935 13972 1
15269 13934 13973 1
15270 13940 13974 1
15271 13937 13975 1
15272 13944 13976 2
15273 13941 13977 2
15274 13963 13978 1
15275 13962 13979 1
15276 13917 13980 1
15277 13917 13981 1
15278 13920 13982 1
15279 13920 13983 1
15280 13925 13984 1
15281 13933 13985 1
15282 13933 13986 1
15283 13934 13987 1
15284 13935 13988 1
15285 13936 13989 1
15286 13936 13990 1
15287 13945 13991 1
15288 13945 13992 1
15289 13946 13993 1
15290 13946 13994 1
15291 13953 13995 1
15292 13953 13996 1
15293 13954 13997 1
15294 13954 13998 1
15295 13955 13999 1
15296 13955 14000 1
15297 13956 14001 1
15298 13957 14002 1
15299 13957 14003 1
15300 13960 14004 1
15301 13961 14005 1
15302 13964 14006 1
15303 13964 14007 1
15304 13965 14008 1
15305 13965 14009 1
15306 13965 14010 1
15307 13966 14011 1
15308 13966 14012 1
15309 13966 14013 1
15310 13967 14014 1
15311 13967 14015 1
15312 13967 14016 1
15313 13968 14017 1
15314 13968 14018 1
15315 13968 14019 1
15316 13969 14020 1
15317 13969 14021 1
15318 13969 14022 1
15319 13970 14023 1
15320 13970 14024 1
15321 13970 14025 1
15322 13971 14026 1
15323 13972 14027 1
15324 13972 14028 1
15325 13972 14029 1
15326 13973 14030 1
15327 13973 14031 1
15328 13973 14032 1
15329 13974 14033 1
15330 13975 14034 1
15331 13978 14035 1
15332 13978 14036 1
15333 13978 14037 1
15334 13979 14038 1
15335 13979 14039 1
15336 13979 14040 1
15337 14043 14042 un
15338 14044 14043 un
15339 14045 14044 un
15340 14046 14045 un
15341 14041 14042 un
15342 14041 14046 un
15343 14048 14047 1
15344 14049 14048 un
15345 14050 14049 1
15346 14044 14047 1
15347 14043 14050 1
15348 14052 14051 un
15349 14053 14052 un
15350 14054 14053 un
15351 14049 14051 un
15352 14048 14054 un
15353 14056 14055 un
15354 14057 14056 un
15355 14058 14057 un
15356 14054 14055 un
15357 14053 14058 un
15358 14060 14059 1
15359 14061 14060 1
15360 14062 14061 un
15361 14057 14059 1
15362 14056 14062 un
15363 14064 14063 1
15364 14065 14064 un
15365 14066 14065 1
15366 14060 14063 1
15367 14059 14066 1
15368 14068 14067 un
15369 14069 14068 un
15370 14070 14069 un
15371 14062 14067 un
15372 14061 14070 un
15373 14072 14071 1
15374 14073 14072 un
15375 14074 14073 1
15376 14069 14071 1
15377 14068 14074 1
15378 14076 14075 1
15379 14077 14076 1
15380 14078 14077 un
15381 14073 14075 1
15382 14072 14078 un
15383 14080 14079 un
15384 14081 14080 un
15385 14082 14081 un
15386 14078 14079 un
15387 14077 14082 un
15388 14084 14083 1
15389 14085 14084 1
15390 14086 14085 1
15391 14082 14083 1
15392 14081 14086 1
15393 14088 14087 1
15394 14089 14088 un
15395 14080 14089 un
15396 14086 14087 1
15397 14091 14090 un
15398 14092 14091 un
15399 14093 14092 un
15400 14089 14090 un
15401 14088 14093 un
15402 14046 14094 1
15403 14094 14095 1
15404 14041 14096 1
15405 14045 14097 1
15406 14042 14098 1
15407 14051 14099 1
15408 14052 14100 1
15409 14058 14101 1
15410 14065 14102 1
15411 14064 14103 1
15412 14070 14104 1
15413 14067 14105 1
15414 14074 14106 2
15415 14071 14107 2
15416 14093 14108 1
15417 14092 14109 1
15418 14047 14110 1
15419 14047 14111 1
15420 14050 14112 1
15421 14050 14113 1
15422 14055 14114 1
15423 14063 14115 1
15424 14063 14116 1
15425 14064 14117 1
15426 14065 14118 1
15427 14066 14119 1
15428 14066 14120 1
15429 14075 14121 1
15430 14075 14122 1
15431 14076 14123 1
15432 14076 14124 1
15433 14083 14125 1
15434 14083 14126 1
15435 14084 14127 1
15436 14084 14128 1
15437 14085 14129 1
15438 14085 14130 1
15439 14086 14131 1
15440 14087 14132 1
15441 14087 14133 1
15442 14090 14134 1
15443 14091 14135 1
15444 14094 14136 1
15445 14094 14137 1
15446 14095 14138 1
15447 14095 14139 1
15448 14095 14140 1
15449 14096 14141 1
15450 14096 14142 1
15451 14096 14143 1
15452 14097 14144 1
15453 14097 14145 1
15454 14097 14146 1
15455 14098 14147 1
15456 14098 14148 1
15457 14098 14149 1
15458 14099 14150 1
15459 14099 14151 1
15460 14099 14152 1
15461 14100 14153 1
15462 14100 14154 1
15463 14100 14155 1
15464 14101 14156 1
15465 14102 14157 1
15466 14102 14158 1
15467 14102 14159 1
15468 14103 14160 1
15469 14103 14161 1
15470 14103 14162 1
15471 14104 14163 1
15472 14105 14164 1
15473 14108 14165 1
15474 14108 14166 1
15475 14108 14167 1
15476 14109 14168 1
15477 14109 14169 1
15478 14109 14170 1
15479 14173 14172 un
15480 14174 14173 un
15481 14175 14174 un
15482 14176 14175 un
15483 14171 14172 un
15484 14171 14176 un
15485 14178 14177 1
15486 14179 14178 un
15487 14180 14179 1
15488 14174 14177 1
15489 14173 14180 1
15490 14182 14181 un
15491 14183 14182 un
15492 14184 14183 un
15493 14179 14181 un
15494 14178 14184 un
15495 14186 14185 un
15496 14187 14186 un
15497 14188 14187 un
15498 14184 14185 un
15499 14183 14188 un
15500 14190 14189 1
15501 14191 14190 1
15502 14192 14191 un
15503 14187 14189 1
15504 14186 14192 un
15505 14194 14193 1
15506 14195 14194 un
15507 14196 14195 1
15508 14190 14193 1
15509 14189 14196 1
15510 14198 14197 un
15511 14199 14198 un
15512 14200 14199 un
15513 14192 14197 un
15514 14191 14200 un
15515 14202 14201 1
15516 14203 14202 un
15517 14204 14203 1
15518 14199 14201 1
15519 14198 14204 1
15520 14206 14205 1
15521 14207 14206 1
15522 14208 14207 un
15523 14203 14205 1
15524 14202 14208 un
15525 14210 14209 un
15526 14211 14210 un
15527 14212 14211 un
15528 14208 14209 un
15529 14207 14212 un
15530 14214 14213 1
15531 14215 14214 1
15532 14216 14215 1
15533 14212 14213 1
15534 14211 14216 1
15535 14218 14217 1
15536 14219 14218 un
15537 14210 14219 un
15538 14216 14217 1
15539 14221 14220 un
15540 14222 14221 un
15541 14223 14222 un
15542 14219 14220 un
15543 14218 14223 un
15544 14176 14224 1
15545 14224 14225 1
15546 14171 14226 1
15547 14175 14227 1
15548 14172 14228 1
15549 14181 14229 1
15550 14182 14230 1
15551 14188 14231 1
15552 14195 14232 1
15553 14194 14233 1
15554 14200 14234 1
15555 14197 14235 1
15556 14204 14236 2
15557 14201 14237 2
15558 14223 14238 1
15559 14222 14239 1
15560 14177 14240 1
15561 14177 14241 1
15562 14180 14242 1
15563 14180 14243 1
15564 14185 14244 1
15565 14193 14245 1
15566 14193 14246 1
15567 14194 14247 1
15568 14195 14248 1
15569 14196 14249 1
15570 14196 14250 1
15571 14205 14251 1
15572 14205 14252 1
15573 14206 14253 1
15574 14206 14254 1
15575 14213 14255 1
15576 14213 14256 1
15577 14214 14257 1
15578 14214 14258 1
15579 14215 14259 1
15580 14215 14260 1
15581 14216 14261 1
15582 14217 14262 1
15583 14217 14263 1
15584 14220 14264 1
15585 14221 14265 1
15586 14224 14266 1
15587 14224 14267 1
15588 14225 14268 1
15589 14225 14269 1
15590 14225 14270 1
15591 14226 14271 1
15592 14226 14272 1
15593 14226 14273 1
15594 14227 14274 1
15595 14227 14275 1
15596 14227 14276 1
15597 14228 14277 1
15598 14228 14278 1
15599 14228 14279 1
15600 14229 14280 1
15601 14229 14281 1
15602 14229 14282 1
15603 14230 14283 1
15604 14230 14284 1
15605 14230 14285 1
15606 14231 14286 1
15607 14232 14287 1
15608 14232 14288 1
15609 14232 14289 1
15610 14233 14290 1
15611 14233 14291 1
15612 14233 14292 1
15613 14234 14293 1
15614 14235 14294 1
15615 14238 14295 1
15616 14238 14296 1
15617 14238 14297 1
15618 14239 14298 1
15619 14239 14299 1
15620 14239 14300 1
15621 14303 14302 un
15622 14304 14303 un
15623 14305 14304 un
15624 14306 14305 un
15625 14301 14302 un
15626 14301 14306 un
15627 14308 14307 1
15628 14309 14308 un
15629 14310 14309 1
15630 14304 14307 1
15631 14303 14310 1
15632 14312 14311 un
15633 14313 14312 un
15634 14314 14313 un
15635 14309 14311 un
15636 14308 14314 un
15637 14316 14315 un
15638 14317 14316 un
15639 14318 14317 un
15640 14314 14315 un
15641 14313 14318 un
15642 14320 14319 1
15643 14321 14320 1
15644 14322 14321 un
15645 14317 14319 1
15646 14316 14322 un
15647 14324 14323 1
15648 14325 14324 un
15649 14326 14325 1
15650 14320 14323 1
15651 14319 14326 1
15652 14328 14327 un
15653 14329 14328 un
15654 14330 14329 un
15655 14322 14327 un
15656 14321 14330 un
15657 14332 14331 1
15658 14333 14332 un
15659 14334 14333 1
15660 14329 14331 1
15661 14328 14334 1
15662 14336 14335 1
15663 14337 14336 1
15664 14338 14337 un
15665 14333 14335 1
15666 14332 14338 un
15667 14340 14339 un
15668 14341 14340 un
15669 14342 14341 un
15670 14338 14339 un
15671 14337 14342 un
15672 14344 14343 1
15673 14345 14344 1
15674 14346 14345 1
15675 14342 14343 1
15676 14341 14346 1
15677 14348 14347 1
15678 14349 14348 un
15679 14340 14349 un
15680 14346 14347 1
15681 14351 14350 un
15682 14352 14351 un
15683 14353 14352 un
15684 14349 14350 un
15685 14348 14353 un
15686 14306 14354 1
15687 14354 14355 1
15688 14301 14356 1
15689 14305 14357 1
15690 14302 14358 1
15691 14311 14359 1
15692 14312 14360 1
15693 14318 14361 1
15694 14325 14362 1
15695 14324 14363 1
15696 14330 14364 1
15697 14327 14365 1
15698 14334 14366 2
15699 14331 14367 2
15700 14353 14368 1
15701 14352 14369 1
15702 14307 14370 1
15703 14307 14371 1
15704 14310 14372 1
15705 14310 14373 1
15706 14315 14374 1
15707 14323 14375 1
15708 14323 14376 1
15709 14324 14377 1
15710 14325 14378 1
15711 14326 14379 1
15712 14326 14380 1
15713 14335 14381 1
15714 14335 14382 1
15715 14336 14383 1
15716 14336 14384 1
15717 14343 14385 1
15718 14343 14386 1
15719 14344 14387 1
15720 14344 14388 1
15721 14345 14389 1
15722 14345 14390 1
15723 14346 14391 1
15724 14347 14392 1
15725 14347 14393 1
15726 14350 14394 1
15727 14351 14395 1
15728 14354 14396 1
15729 14354 14397 1
15730 14355 14398 1
15731 14355 14399 1
15732 14355 14400 1
15733 14356 14401 1
15734 14356 14402 1
15735 14356 14403 1
15736 14357 14404 1
15737 14357 14405 1
15738 14357 14406 1
15739 14358 14407 1
15740 14358 14408 1
15741 14358 14409 1
15742 14359 14410 1
15743 14359 14411 1
15744 14359 14412 1
15745 14360 14413 1
15746 14360 14414 1
15747 14360 14415 1
15748 14361 14416 1
15749 14362 14417 1
15750 14362 14418 1
15751 14362 14419 1
15752 14363 14420 1
15753 14363 14421 1
15754 14363 14422 1
15755 14364 14423 1
15756 14365 14424 1
15757 14368 14425 1
15758 14368 14426 1
15759 14368 14427 1
15760 14369 14428 1
15761 14369 14429 1
15762 14369 14430 1
15763 14433 14432 un
15764 14434 14433 un
15765 14435 14434 un
15766 14436 14435 un
15767 14431 14432 un
15768 14431 14436 un
15769 14438 14437 1
15770 14439 14438 un
15771 14440 14439 1
15772 14434 14437 1
15773 14433 14440 1
15774 14442 14441 un
15775 14443 14442 un
15776 14444 14443 un
15777 14439 14441 un
15778 14438 14444 un
15779 14446 14445 un
15780 14447 14446 un
15781 14448 14447 un
15782 14444 14445 un
15783 14443 14448 un
15784 14450 14449 1
15785 14451 14450 1
15786 14452 14451 un
15787 14447 14449 1
15788 14446 14452 un
15789 14454 14453 1
15790 14455 14454 un
15791 14456 14455 1
15792 14450 14453 1
15793 14449 14456 1
15794 14458 14457 un
15795 14459 14458 un
15796 14460 14459 un
15797 14452 14457 un
15798 14451 14460 un
15799 14462 14461 1
15800 14463 14462 un
15801 14464 14463 1
15802 14459 14461 1
15803 14458 14464 1
15804 14466 14465 1
15805 14467 14466 1
15806 14468 14467 un
15807 14463 14465 1
15808 14462 14468 un
15809 14470 14469 un
15810 14471 14470 un
15811 14472 14471 un
15812 14468 14469 un
15813 14467 14472 un
15814 14474 14473 1
15815 14475 14474 1
15816 14476 14475 1
15817 14472 14473 1
15818 14471 14476 1
15819 14478 14477 1
15820 14479 14478 un
15821 14470 14479 un
15822 14476 14477 1
15823 14481 14480 un
15824 14482 14481 un
15825 14483 14482 un
15826 14479 14480 un
15827 14478 14483 un
15828 14436 14484 1
15829 14484 14485 1
15830 14431 14486 1
15831 14435 14487 1
15832 14432 14488 1
15833 14441 14489 1
15834 14442 14490 1
15835 14448 14491 1
15836 14455 14492 1
15837 14454 14493 1
15838 14460 14494 1
15839 14457 14495 1
15840 14464 14496 2
15841 14461 14497 2
15842 14483 14498 1
15843 14482 14499 1
15844 14437 14500 1
15845 14437 14501 1
15846 14440 14502 1
15847 14440 14503 1
15848 14445 14504 1
15849 14453 14505 1
15850 14453 14506 1
15851 14454 14507 1
15852 14455 14508 1
15853 14456 14509 1
15854 14456 14510 1
15855 14465 14511 1
15856 14465 14512 1
15857 14466 14513 1
15858 14466 14514 1
15859 14473 14515 1
15860 14473 14516 1
15861 14474 14517 1
15862 14474 14518 1
15863 14475 14519 1
15864 14475 14520 1
15865 14476 14521 1
15866 14477 14522 1
15867 14477 14523 1
15868 14480 14524 1
15869 14481 14525 1
15870 14484 14526 1
15871 14484 14527 1
15872 14485 14528 1
15873 14485 14529 1
15874 14485 14530 1
15875 14486 14531 1
15876 14486 14532 1
15877 14486 14533 1
15878 14487 14534 1
15879 14487 14535 1
15880 14487 14536 1
15881 14488 14537 1
15882 14488 14538 1
15883 14488 14539 1
15884 14489 14540 1
15885 14489 14541 1
15886 14489 14542 1
15887 14490 14543 1
15888 14490 14544 1
15889 14490 14545 1
15890 14491 14546 1
15891 14492 14547 1
15892 14492 14548 1
15893 14492 14549 1
15894 14493 14550 1
15895 14493 14551 1
15896 14493 14552 1
15897 14494 14553 1
15898 14495 14554 1
15899 14498 14555 1
15900 14498 14556 1
15901 14498 14557 1
15902 14499 14558 1
15903 14499 14559 1
15904 14499 14560 1
15905 14563 14562 un
15906 14564 14563 un
15907 14565 14564 un
15908 14566 14565 un
15909 14561 14562 un
15910 14561 14566 un
15911 14568 14567 1
15912 14569 14568 un
15913 14570 14569 1
15914 14564 14567 1
15915 14563 14570 1
15916 14572 14571 un
15917 14573 14572 un
15918 14574 14573 un
15919 14569 14571 un
15920 14568 14574 un
15921 14576 14575 un
15922 14577 14576 un
15923 14578 14577 un
15924 14574 14575 un
15925 14573 14578 un
15926 14580 14579 1
15927 14581 14580 1
15928 14582 14581 un
15929 14577 14579 1
15930 14576 14582 un
15931 14584 14583 1
15932 14585 14584 un
15933 14586 14585 1
15934 14580 14583 1
15935 14579 14586 1
15936 14588 14587 un
15937 14589 14588 un
15938 14590 14589 un
15939 14582 14587 un
15940 14581 14590 un
15941 14592 14591 1
15942 14593 14592 un
15943 14594 14593 1
15944 14589 14591 1
15945 14588 14594 1
15946 14596 14595 1
15947 14597 14596 1
15948 14598 14597 un
15949 14593 14595 1
15950 14592 14598 un
15951 14600 14599 un
15952 14601 14600 un
15953 14602 14601 un
15954 14598 14599 un
15955 14597 14602 un
15956 14604 14603 1
15957 14605 14604 1
15958 14606 14605 1
15959 14602 14603 1
15960 14601 14606 1
15961 14608 14607 1
15962 14609 14608 un
15963 14600 14609 un
15964 14606 14607 1
15965 14611 14610 un
15966 14612 14611 un
15967 14613 14612 un
15968 14609 14610 un
15969 14608 14613 un
15970 14566 14614 1
15971 14614 14615 1
15972 14561 14616 1
15973 14565 14617 1
15974 14562 14618 1
15975 14571 14619 1
15976 14572 14620 1
15977 14578 14621 1
15978 14585 14622 1
15979 14584 14623 1
15980 14590 14624 1
15981 14587 14625 1
15982 14594 14626 2
15983 14591 14627 2
15984 14613 14628 1
15985 14612 14629 1
15986 14567 14630 1
15987 14567 14631 1
15988 14570 14632 1
15989 14570 14633 1
15990 14575 14634 1
15991 14583 14635 1
15992 14583 14636 1
15993 14584 14637 1
15994 14585 14638 1
15995 14586 14639 1
15996 14586 14640 1
15997 14595 14641 1
15998 14595 14642 1
15999 14596 14643 1
16000 14596 14644 1
16001 14603 14645 1
16002 14603 14646 1
16003 14604 14647 1
16004 14604 14648 1
16005 14605 14649 1
16006 14605 14650 1
16007 14606 14651 1
16008 14607 14652 1
16009 14607 14653 1
16010 14610 14654 1
16011 14611 14655 1
16012 14614 14656 1
16013 14614 14657 1
16014 14615 14658 1
16015 14615 14659 1
16016 14615 14660 1
16017 14616 14661 1
16018 14616 14662 1
16019 14616 14663 1
16020 14617 14664 1
16021 14617 14665 1
16022 14617 14666 1
16023 14618 14667 1
16024 14618 14668 1
16025 14618 14669 1
16026 14619 14670 1
16027 14619 14671 1
16028 14619 14672 1
16029 14620 14673 1
16030 14620 14674 1
16031 14620 14675 1
16032 14621 14676 1
16033 14622 14677 1
16034 14622 14678 1
16035 14622 14679 1
16036 14623 14680 1
16037 14623 14681 1
16038 14623 14682 1
16039 14624 14683 1
16040 14625 14684 1
16041 14628 14685 1
16042 14628 14686 1
16043 14628 14687 1
16044 14629 14688 1
16045 14629 14689 1
16046 14629 14690 1
16047 14693 14692 un
16048 14694 14693 un
16049 14695 14694 un
16050 14696 14695 un
16051 14691 14692 un
16052 14691 14696 un
16053 14698 14697 1
16054 14699 14698 un
16055 14700 14699 1
16056 14694 14697 1
16057 14693 14700 1
16058 14702 14701 un
16059 14703 14702 un
16060 14704 14703 un
16061 14699 14701 un
16062 14698 14704 un
16063 14706 14705 un
16064 14707 14706 un
16065 14708 14707 un
16066 14704 14705 un
16067 14703 14708 un
16068 14710 14709 1
16069 14711 14710 1
16070 14712 14711 un
16071 14707 14709 1
16072 14706 14712 un
16073 14714 14713 1
16074 14715 14714 un
16075 14716 14715 1
16076 14710 14713 1
16077 14709 14716 1
16078 14718 14717 un
16079 14719 14718 un
16080 14720 14719 un
16081 14712 14717 un
16082 14711 14720 un
16083 14722 14721 1
16084 14723 14722 un
16085 14724 14723 1
16086 14719 14721 1
16087 14718 14724 1
16088 14726 14725 1
16089 14727 14726 1
16090 14728 14727 un
16091 14723 14725 1
16092 14722 14728 un
16093 14730 14729 un
16094 14731 14730 un
16095 14732 14731 un
16096 14728 14729 un
16097 14727 14732 un
16098 14734 14733 1
16099 14735 14734 1
16100 14736 14735 1
16101 14732 14733 1
16102 14731 14736 1
16103 14738 14737 1
16104 14739 14738 un
16105 14730 14739 un
16106 14736 14737 1
16107 14741 14740 un
16108 14742 14741 un
16109 14743 14742 un
16110 14739 14740 un
16111 14738 14743 un
16112 14696 14744 1
16113 14744 14745 1
16114 14691 14746 1
16115 14695 14747 1
16116 14692 14748 1
16117 14701 14749 1
16118 14702 14750 1
16119 14708 14751 1
16120 14715 14752 1
16121 14714 14753 1
16122 14720 14754 1
16123 14717 14755 1
16124 14724 14756 2
16125 14721 14757 2
16126 14743 14758 1
16127 14742 14759 1
16128 14697 14760 1
16129 14697 14761 1
16130 14700 14762 1
16131 14700 14763 1
16132 14705 14764 1
16133 14713 14765 1
16134 14713 14766 1
16135 14714 14767 1
16136 14715 14768 1
16137 14716 14769 1
16138 14716 14770 1
16139 14725 14771 1
16140 14725 14772 1
16141 14726 14773 1
16142 14726 14774 1
16143 14733 14775 1
16144 14733 14776 1
16145 14734 14777 1
16146 14734 14778 1
16147 14735 14779 1
16148 14735 14780 1
16149 14736 14781 1
16150 14737 14782 1
16151 14737 14783 1
16152 14740 14784 1
16153 14741 14785 1
16154 14744 14786 1
16155 14744 14787 1
16156 14745 14788 1
16157 14745 14789 1
16158 14745 14790 1
16159 14746 14791 1
16160 14746 14792 1
16161 14746 14793 1
16162 14747 14794 1
16163 14747 14795 1
16164 14747 14796 1
16165 14748 14797 1
16166 14748 14798 1
16167 14748 14799 1
16168 14749 14800 1
16169 14749 14801 1
16170 14749 14802 1
16171 14750 14803 1
16172 14750 14804 1
16173 14750 14805 1
16174 14751 14806 1
16175 14752 14807 1
16176 14752 14808 1
16177 14752 14809 1
16178 14753 14810 1
16179 14753 14811 1
16180 14753 14812 1
16181 14754 14813 1
16182 14755 14814 1
16183 14758 14815 1
16184 14758 14816 1
16185 14758 14817 1
16186 14759 14818 1
16187 14759 14819 1
16188 14759 14820 1
16189 14823 14822 un
16190 14824 14823 un
16191 14825 14824 un
16192 14826 14825 un
16193 14821 14822 un
16194 14821 14826 un
16195 14828 14827 1
16196 14829 14828 un
16197 14830 14829 1
16198 14824 14827 1
16199 14823 14830 1
16200 14832 14831 un
16201 14833 14832 un
16202 14834 14833 un
16203 14829 14831 un
16204 14828 14834 un
16205 14836 14835 un
16206 14837 14836 un
16207 14838 14837 un
16208 14834 14835 un
16209 14833 14838 un
16210 14840 14839 1
16211 14841 14840 1
16212 14842 14841 un
16213 14837 14839 1
16214 14836 14842 un
16215 14844 14843 1
16216 14845 14844 un
16217 14846 14845 1
16218 14840 14843 1
16219 14839 14846 1
16220 14848 14847 un
16221 14849 14848 un
16222 14850 14849 un
16223 14842 14847 un
16224 14841 14850 un
16225 14852 14851 1
16226 14853 14852 un
16227 14854 14853 1
16228 14849 14851 1
16229 14848 14854 1
16230 14856 14855 1
16231 14857 14856 1
16232 14858 14857 un
16233 14853 14855 1
16234 14852 14858 un
16235 14860 14859 un
16236 14861 14860 un
16237 14862 14861 un
16238 14858 14859 un
16239 14857 14862 un
16240 14864 14863 1
16241 14865 14864 1
16242 14866 14865 1
16243 14862 14863 1
16244 14861 14866 1
16245 14868 14867 1
16246 14869 14868 un
16247 14860 14869 un
16248 14866 14867 1
16249 14871 14870 un
16250 14872 14871 un
16251 14873 14872 un
16252 14869 14870 un
16253 14868 14873 un
16254 14826 14874 1
16255 14874 14875 1
16256 14821 14876 1
16257 14825 14877 1
16258 14822 14878 1
16259 14831 14879 1
16260 14832 14880 1
16261 14838 14881 1
16262 14845 14882 1
16263 14844 14883 1
16264 14850 14884 1
16265 14847 14885 1
16266 14854 14886 2
16267 14851 14887 2
16268 14873 14888 1
16269 14872 14889 1
16270 14827 14890 1
16271 14827 14891 1
16272 14830 14892 1
16273 14830 14893 1
16274 14835 14894 1
16275 14843 14895 1
16276 14843 14896 1
16277 14844 14897 1
16278 14845 14898 1
16279 14846 14899 1
16280 14846 14900 1
16281 14855 14901 1
16282 14855 14902 1
16283 14856 14903 1
16284 14856 14904 1
16285 14863 14905 1
16286 14863 14906 1
16287 14864 14907 1
16288 14864 14908 1
16289 14865 14909 1
16290 14865 14910 1
16291 14866 14911 1
16292 14867 14912 1
16293 14867 14913 1
16294 14870 14914 1
16295 14871 14915 1
16296 14874 14916 1
16297 14874 14917 1
16298 14875 14918 1
16299 14875 14919 1
16300 14875 14920 1
16301 14876 14921 1
16302 14876 14922 1
16303 14876 14923 1
16304 14877 14924 1
16305 14877 14925 1
16306 14877 14926 1
16307 14878 14927 1
16308 14878 14928 1
16309 14878 14929 1
16310 14879 14930 1
16311 14879 14931 1
16312 14879 14932 1
16313 14880 14933 1
16314 14880 14934 1
16315 14880 14935 1
16316 14881 14936 1
16317 14882 14937 1
16318 14882 14938 1
16319 14882 14939 1
16320 14883 14940 1
16321 14883 14941 1
16322 14883 14942 1
16323 14884 14943 1
16324 14885 14944 1
16325 14888 14945 1
16326 14888 14946 1
16327 14888 14947 1
16328 14889 14948 1
16329 14889 14949 1
16330 14889 14950 1
16331 14953 14952 un
16332 14954 14953 un
16333 14955 14954 un
16334 14956 14955 un
16335 14951 14952 un
16336 14951 14956 un
16337 14958 14957 1
16338 14959 14958 un
16339 14960 14959 1
16340 14954 14957 1
16341 14953 14960 1
16342 14962 14961 un
16343 14963 14962 un
16344 14964 14963 un
16345 14959 14961 un
16346 14958 14964 un
16347 14966 14965 un
16348 14967 14966 un
16349 14968 14967 un
16350 14964 14965 un
16351 14963 14968 un
16352 14970 14969 1
16353 14971 14970 1
16354 14972 14971 un
16355 14967 14969 1
16356 14966 14972 un
16357 14974 14973 1
16358 14975 14974 un
16359 14976 14975 1
16360 14970 14973 1
16361 14969 14976 1
16362 14978 14977 un
16363 14979 14978 un
16364 14980 14979 un
16365 14972 14977 un
16366 14971 14980 un
16367 14982 14981 1
16368 14983 14982 un
16369 14984 14983 1
16370 14979 14981 1
16371 14978 14984 1
16372 14986 14985 1
16373 14987 14986 1
16374 14988 14987 un
16375 14983 14985 1
16376 14982 14988 un
16377 14990 14989 un
16378 14991 14990 un
16379 14992 14991 un
16380 14988 14989 un
16381 14987 14992 un
16382 14994 14993 1
16383 14995 14994 1
16384 14996 14995 1
16385 14992 14993 1
16386 14991 14996 1
16387 14998 14997 1
16388 14999 14998 un
16389 14990 14999 un
16390 14996 14997 1
16391 15001 15000 un
16392 15002 15001 un
16393 15003 15002 un
16394 14999 15000 un
16395 14998 15003 un
16396 14956 15004 1
16397 15004 15005 1
16398 14951 15006 1
16399 14955 15007 1
16400 14952 15008 1
16401 14961 15009 1
16402 14962 15010 1
16403 14968 15011 1
16404 14975 15012 1
16405 14974 15013 1
16406 14980 15014 1
16407 14977 15015 1
16408 14984 15016 2
16409 14981 15017 2
16410 15003 15018 1
16411 15002 15019 1
16412 14957 15020 1
16413 14957 15021 1
16414 14960 15022 1
16415 14960 15023 1
16416 14965 15024 1
16417 14973 15025 1
16418 14973 15026 1
16419 14974 15027 1
16420 14975 15028 1
16421 14976 15029 1
16422 14976 15030 1
16423 14985 15031 1
16424 14985 15032 1
16425 14986 15033 1
16426 14986 15034 1
16427 14993 15035 1
16428 14993 15036 1
16429 14994 15037 1
16430 14994 15038 1
16431 14995 15039 1
16432 14995 15040 1
16433 14996 15041 1
16434 14997 15042 1
16435 14997 15043 1
16436 15000 15044 1
16437 15001 15045 1
16438 15004 15046 1
16439 15004 15047 1
16440 15005 15048 1
16441 15005 15049 1
16442 15005 15050 1
16443 15006 15051 1
16444 15006 15052 1
16445 15006 15053 1
16446 15007 15054 1
16447 15007 15055 1
16448 15007 15056 1
16449 15008 15057 1
16450 15008 15058 1
16451 15008 15059 1
16452 15009 15060 1
16453 15009 15061 1
16454 15009 15062 1
16455 15010 15063 1
16456 15010 15064 1
16457 15010 15065 1
16458 15011 15066 1
16459 15012 15067 1
16460 15012 15068 1
16461 15012 15069 1
16462 15013 15070 1
16463 15013 15071 1
16464 15013 15072 1
16465 15014 15073 1
16466 15015 15074 1
16467 15018 15075 1
16468 15018 15076 1
16469 15018 15077 1
16470 15019 15078 1
16471 15019 15079 1
16472 15019 15080 1
16473 15083 15082 un
16474 15084 15083 un
16475 15085 15084 un
16476 15086 15085 un
16477 15081 15082 un
16478 15081 15086 un
16479 15088 15087 1
16480 15089 15088 un
16481 15090 15089 1
16482 15084 15087 1
16483 15083 15090 1
16484 15092 15091 un
16485 15093 15092 un
16486 15094 15093 un
16487 15089 15091 un
16488 15088 15094 un
16489 15096 15095 un
16490 15097 15096 un
16491 15098 15097 un
16492 15094 15095 un
16493 15093 15098 un
16494 15100 15099 1
16495 15101 15100 1
16496 15102 15101 un
16497 15097 15099 1
16498 15096 15102 un
16499 15104 15103 1
16500 15105 15104 un
16501 15106 15105 1
16502 15100 15103 1
16503 15099 15106 1
16504 15108 15107 un
16505 15109 15108 un
16506 15110 15109 un
16507 15102 15107 un
16508 15101 15110 un
16509 15112 15111 1
16510 15113 15112 un
16511 15114 15113 1
16512 15109 15111 1
16513 15108 15114 1
16514 15116 15115 1
16515 15117 15116 1
16516 15118 15117 un
16517 15113 15115 1
16518 15112 15118 un
16519 15120 15119 un
16520 15121 15120 un
16521 15122 15121 un
16522 15118 15119 un
16523 15117 15122 un
16524 15124 15123 1
16525 15125 15124 1
16526 15126 15125 1
16527 15122 15123 1
16528 15121 15126 1
16529 15128 15127 1
16530 15129 15128 un
16531 15120 15129 un
16532 15126 15127 1
16533 15131 15130 un
16534 15132 15131 un
16535 15133 15132 un
16536 15129 15130 un
16537 15128 15133 un
16538 15086 15134 1
16539 15134 15135 1
16540 15081 15136 1
16541 15085 15137 1
16542 15082 15138 1
16543 15091 15139 1
16544 15092 15140 1
16545 15098 15141 1
16546 15105 15142 1
16547 15104 15143 1
16548 15110 15144 1
16549 15107 15145 1
16550 15114 15146 2
16551 15111 15147 2
16552 15133 15148 1
16553 15132 15149 1
16554 15087 15150 1
16555 15087 15151 1
16556 15090 15152 1
16557 15090 15153 1
16558 15095 15154 1
16559 15103 15155 1
16560 15103 15156 1
16561 15104 15157 1
16562 15105 15158 1
16563 15106 15159 1
16564 15106 15160 1
16565 15115 15161 1
16566 15115 15162 1
16567 15116 15163 1
16568 15116 15164 1
16569 15123 15165 1
16570 15123 15166 1
16571 15124 15167 1
16572 15124 15168 1
16573 15125 15169 1
16574 15125 15170 1
16575 15126 15171 1
16576 15127 15172 1
16577 15127 15173 1
16578 15130 15174 1
16579 15131 15175 1
16580 15134 15176 1
16581 15134 15177 1
16582 15135 15178 1
16583 15135 15179 1
16584 15135 15180 1
16585 15136 15181 1
16586 15136 15182 1
16587 15136 15183 1
16588 15137 15184 1
16589 15137 15185 1
16590 15137 15186 1
16591 15138 15187 1
16592 15138 15188 1
16593 15138 15189 1
16594 15139 15190 1
16595 15139 15191 1
16596 15139 15192 1
16597 15140 15193 1
16598 15140 15194 1
16599 15140 15195 1
16600 15141 15196 1
16601 15142 15197 1
16602 15142 15198 1
16603 15142 15199 1
16604 15143 15200 1
16605 15143 15201 1
16606 15143 15202 1
16607 15144 15203 1
16608 15145 15204 1
16609 15148 15205 1
16610 15148 15206 1
16611 15148 15207 1
16612 15149 15208 1
16613 15149 15209 1
16614 15149 15210 1
16615 15213 15212 un
16616 15214 15213 un
16617 15215 15214 un
16618 15216 15215 un
16619 15211 15212 un
16620 15211 15216 un
16621 15218 15217 1
16622 15219 15218 un
16623 15220 15219 1
16624 15214 15217 1
16625 15213 15220 1
16626 15222 15221 un
16627 15223 15222 un
16628 15224 15223 un
16629 15219 15221 un
16630 15218 15224 un
16631 15226 15225 un
16632 15227 15226 un
16633 15228 15227 un
16634 15224 15225 un
16635 15223 15228 un
16636 15230 15229 1
16637 15231 15230 1
16638 15232 15231 un
16639 15227 15229 1
16640 15226 15232 un
16641 15234 15233 1
16642 15235 15234 un
16643 15236 15235 1
16644 15230 15233 1
16645 15229 15236 1
16646 15238 15237 un
16647 15239 15238 un
16648 15240 15239 un
16649 15232 15237 un
16650 15231 15240 un
16651 15242 15241 1
16652 15243 15242 un
16653 15244 15243 1
16654 15239 15241 1
16655 15238 15244 1
16656 15246 15245 1
16657 15247 15246 1
16658 15248 15247 un
16659 15243 15245 1
16660 15242 15248 un
16661 15250 15249 un
16662 15251 15250 un
16663 15252 15251 un
16664 15248 15249 un
16665 15247 15252 un
16666 15254 15253 1
16667 15255 15254 1
16668 15256 15255 1
16669 15252 15253 1
16670 15251 15256 1
16671 15258 15257 1
16672 15259 15258 un
16673 15250 15259 un
16674 15256 15257 1
16675 15261 15260 un
16676 15262 15261 un
16677 15263 15262 un
16678 15259 15260 un
16679 15258 15263 un
16680 15216 15264 1
16681 15264 15265 1
16682 15211 15266 1
16683 15215 15267 1
16684 15212 15268 1
16685 15221 15269 1
16686 15222 15270 1
16687 15228 15271 1
16688 15235 15272 1
16689 15234 15273 1
16690 15240 15274 1
16691 15237 15275 1
16692 15244 15276 2
16693 15241 15277 2
16694 15263 15278 1
16695 15262 15279 1
16696 15217 15280 1
16697 15217 15281 1
16698 15220 15282 1
16699 15220 15283 1
16700 15225 15284 1
16701 15233 15285 1
16702 15233 15286 1
16703 15234 15287 1
16704 15235 15288 1
16705 15236 15289 1
16706 15236 15290 1
16707 15245 15291 1
16708 15245 15292 1
16709 15246 15293 1
16710 15246 15294 1
16711 15253 15295 1
16712 15253 15296 1
16713 15254 15297 1
16714 15254 15298 1
16715 15255 15299 1
16716 15255 15300 1
16717 15256 15301 1
16718 15257 15302 1
16719 15257 15303 1
16720 15260 15304 1
16721 15261 15305 1
16722 15264 15306 1
16723 15264 15307 1
16724 15265 15308 1
16725 15265 15309 1
16726 15265 15310 1
16727 15266 15311 1
16728 15266 15312 1
16729 15266 15313 1
16730 15267 15314 1
16731 15267 15315 1
16732 15267 15316 1
16733 15268 15317 1
16734 15268 15318 1
16735 15268 15319 1
16736 15269 15320 1
16737 15269 15321 1
16738 15269 15322 1
16739 15270 15323 1
16740 15270 15324 1
16741 15270 15325 1
16742 15271 15326 1
16743 15272 15327 1
16744 15272 15328 1
16745 15272 15329 1
16746 15273 15330 1
16747 15273 15331 1
16748 15273 15332 1
16749 15274 15333 1
16750 15275 15334 1
16751 15278 15335 1
16752 15278 15336 1
16753 15278 15337 1
16754 15279 15338 1
16755 15279 15339 1
16756 15279 15340 1
16757 15343 15342 un
16758 15344 15343 un
16759 15345 15344 un
16760 15346 15345 un
16761 15341 15342 un
16762 15341 15346 un
16763 15348 15347 1
16764 15349 15348 un
16765 15350 15349 1
16766 15344 15347 1
16767 15343 15350 1
16768 15352 15351 un
16769 15353 15352 un
16770 15354 15353 un
16771 15349 15351 un
16772 15348 15354 un
16773 15356 15355 un
16774 15357 15356 un
16775 15358 15357 un
16776 15354 15355 un
16777 15353 15358 un
16778 15360 15359 1
16779 15361 15360 1
16780 15362 15361 un
16781 15357 15359 1
16782 15356 15362 un
16783 15364 15363 1
16784 15365 15364 un
16785 15366 15365 1
16786 15360 15363 1
16787 15359 15366 1
16788 15368 15367 un
16789 15369 15368 un
16790 15370 15369 un
16791 15362 15367 un
16792 15361 15370 un
16793 15372 15371 1
16794 15373 15372 un
16795 15374 15373 1
16796 15369 15371 1
16797 15368 15374 1
16798 15376 15375 1
16799 15377 15376 1
16800 15378 15377 un
16801 15373 15375 1
16802 15372 15378 un
16803 15380 15379 un
16804 15381 15380 un
16805 15382 15381 un
16806 15378 15379 un
16807 15377 15382 un
16808 15384 15383 1
16809 15385 15384 1
16810 15386 15385 1
16811 15382 15383 1
16812 15381 15386 1
16813 15388 15387 1
16814 15389 15388 un
16815 15380 15389 un
16816 15386 15387 1
16817 15391 15390 un
16818 15392 15391 un
16819 15393 15392 un
16820 15389 15390 un
16821 15388 15393 un
16822 15346 15394 1
16823 15394 15395 1
16824 15341 15396 1
16825 15345 15397 1
16826 15342 15398 1
16827 15351 15399 1
16828 15352 15400 1
16829 15358 15401 1
16830 15365 15402 1
16831 15364 15403 1
16832 15370 15404 1
16833 15367 15405 1
16834 15374 15406 2
16835 15371 15407 2
16836 15393 15408 1
16837 15392 15409 1
16838 15347 15410 1
16839 15347 15411 1
16840 15350 15412 1
16841 15350 15413 1
16842 15355 15414 1
16843 15363 15415 1
16844 15363 15416 1
16845 15364 15417 1
16846 15365 15418 1
16847 15366 15419 1
16848 15366 15420 1
16849 15375 15421 1
16850 15375 15422 1
16851 15376 15423 1
16852 15376 15424 1
16853 15383 15425 1
16854 15383 15426 1
16855 15384 15427 1
16856 15384 15428 1
16857 15385 15429 1
16858 15385 15430 1
16859 15386 15431 1
16860 15387 15432 1
16861 15387 15433 1
16862 15390 15434 1
16863 15391 15435 1
16864 15394 15436 1
16865 15394 15437 1
16866 15395 15438 1
16867 15395 15439 1
16868 15395 15440 1
16869 15396 15441 1
16870 15396 15442 1
16871 15396 15443 1
16872 15397 15444 1
16873 15397 15445 1
16874 15397 15446 1
16875 15398 15447 1
16876 15398 15448 1
16877 15398 15449 1
16878 15399 15450 1
16879 15399 15451 1
16880 15399 15452 1
16881 15400 15453 1
16882 15400 15454 1
16883 15400 15455 1
16884 15401 15456 1
16885 15402 15457 1
16886 15402 15458 1
16887 15402 15459 1
16888 15403 15460 1
16889 15403 15461 1
16890 15403 15462 1
16891 15404 15463 1
16892 15405 15464 1
16893 15408 15465 1
16894 15408 15466 1
16895 15408 15467 1
16896 15409 15468 1
16897 15409 15469 1
16898 15409 15470 1
16899 15473 15472 un
16900 15474 15473 un
16901 15475 15474 un
16902 15476 15475 un
16903 15471 15472 un
16904 15471 15476 un
16905 15478 15477 1
16906 15479 15478 un
16907 15480 15479 1
16908 15474 15477 1
16909 15473 15480 1
16910 15482 15481 un
16911 15483 15482 un
16912 15484 15483 un
16913 15479 15481 un
16914 15478 15484 un
16915 15486 15485 un
16916 15487 15486 un
16917 15488 15487 un
16918 15484 15485 un
16919 15483 15488 un
16920 15490 15489 1
16921 15491 15490 1
16922 15492 15491 un
16923 15487 15489 1
16924 15486 15492 un
16925 15494 15493 1
16926 15495 15494 un
16927 15496 15495 1
16928 15490 15493 1
16929 15489 15496 1
16930 15498 15497 un
16931 15499 15498 un
16932 15500 15499 un
16933 15492 15497 un
16934 15491 15500 un
16935 15502 15501 1
16936 15503 15502 un
16937 15504 15503 1
16938 15499 15501 1
16939 15498 15504 1
16940 15506 15505 1
16941 15507 15506 1
16942 15508 15507 un
16943 15503 15505 1
16944 15502 15508 un
16945 15510 15509 un
16946 15511 15510 un
16947 15512 15511 un
16948 15508 15509 un
16949 15507 15512 un
16950 15514 15513 1
16951 15515 15514 1
16952 15516 15515 1
16953 15512 15513 1
16954 15511 15516 1
16955 15518 15517 1
16956 15519 15518 un
16957 15510 15519 un
16958 15516 15517 1
16959 15521 15520 un
16960 15522 15521 un
16961 15523 15522 un
16962 15519 15520 un
16963 15518 15523 un
16964 15476 15524 1
16965 15524 15525 1
16966 15471 15526 1
16967 15475 15527 1
16968 15472 15528 1
16969 15481 15529 1
16970 15482 15530 1
16971 15488 15531 1
16972 15495 15532 1
16973 15494 15533 1
16974 15500 15534 1
16975 15497 15535 1
16976 15504 15536 2
16977 15501 15537 2
16978 15523 15538 1
16979 15522 15539 1
16980 15477 15540 1
16981 15477 15541 1
16982 15480 15542 1
16983 15480 15543 1
16984 15485 15544 1
16985 15493 15545 1
16986 15493 15546 1
16987 15494 15547 1
16988 15495 15548 1
16989 15496 15549 1
16990 15496 15550 1
16991 15505 15551 1
16992 15505 15552 1
16993 15506 15553 1
16994 15506 15554 1
16995 15513 15555 1
16996 15513 15556 1
16997 15514 15557 1
16998 15514 15558 1
16999 15515 15559 1
17000 15515 15560 1
17001 15516 15561 1
17002 15517 15562 1
17003 15517 15563 1
17004 15520 15564 1
17005 15521 15565 1
17006 15524 15566 1
17007 15524 15567 1
17008 15525 15568 1
17009 15525 15569 1
17010 15525 15570 1
17011 15526 15571 1
17012 15526 15572 1
17013 15526 15573 1
17014 15527 15574 1
17015 15527 15575 1
17016 15527 15576 1
17017 15528 15577 1
17018 15528 15578 1
17019 15528 15579 1
17020 15529 15580 1
17021 15529 15581 1
17022 15529 15582 1
17023 15530 15583 1
17024 15530 15584 1
17025 15530 15585 1
17026 15531 15586 1
17027 15532 15587 1
17028 15532 15588 1
17029 15532 15589 1
17030 15533 15590 1
17031 15533 15591 1
17032 15533 15592 1
17033 15534 15593 1
17034 15535 15594 1
17035 15538 15595 1
17036 15538 15596 1
17037 15538 15597 1
17038 15539 15598 1
17039 15539 15599 1
17040 15539 15600 1
17041 15603 15602 un
17042 15604 15603 un
17043 15605 15604 un
17044 15606 15605 un
17045 15601 15602 un
17046 15601 15606 un
17047 15608 15607 1
17048 15609 15608 un
17049 15610 15609 1
17050 15604 15607 1
17051 15603 15610 1
17052 15612 15611 un
17053 15613 15612 un
17054 15614 15613 un
17055 15609 15611 un
17056 15608 15614 un
17057 15616 15615 un
17058 15617 15616 un
17059 15618 15617 un
17060 15614 15615 un
17061 15613 15618 un
17062 15620 15619 1
17063 15621 15620 1
17064 15622 15621 un
17065 15617 15619 1
17066 15616 15622 un
17067 15624 15623 1
17068 15625 15624 un
17069 15626 15625 1
17070 15620 15623 1
17071 15619 15626 1
17072 15628 15627 un
17073 15629 15628 un
17074 15630 15629 un
17075 15622 15627 un
17076 15621 15630 un
17077 15632 15631 1
17078 15633 15632 un
17079 15634 15633 1
17080 15629 15631 1
17081 15628 15634 1
17082 15636 15635 1
17083 15637 15636 1
17084 15638 15637 un
17085 15633 15635 1
17086 15632 15638 un
17087 15640 15639 un
17088 15641 15640 un
17089 15642 15641 un
17090 15638 15639 un
17091 15637 15642 un
17092 15644 15643 1
17093 15645 15644 1
17094 15646 15645 1
17095 15642 15643 1
17096 15641 15646 1
17097 15648 15647 1
17098 15649 15648 un
17099 15640 15649 un
17100 15646 15647 1
17101 15651 15650 un
17102 15652 15651 un
17103 15653 15652 un
17104 15649 15650 un
17105 15648 15653 un
17106 15606 15654 1
17107 15654 15655 1
17108 15601 15656 1
17109 15605 15657 1
17110 15602 15658 1
17111 15611 15659 1
17112 15612 15660 1
17113 15618 15661 1
17114 15625 15662 1
17115 15624 15663 1
17116 15630 15664 1
17117 15627 15665 1
17118 15634 15666 2
17119 15631 15667 2
17120 15653 15668 1
17121 15652 15669 1
17122 15607 15670 1
17123 15607 15671 1
17124 15610 15672 1
17125 15610 15673 1
17126 15615 15674 1
17127 15623 15675 1
17128 15623 15676 1
17129 15624 15677 1
17130 15625 15678 1
17131 15626 15679 1
17132 15626 15680 1
17133 15635 15681 1
17134 15635 15682 1
17135 15636 15683 1
17136 15636 15684 1
17137 15643 15685 1
17138 15643 15686 1
17139 15644 15687 1
17140 15644 15688 1
17141 15645 15689 1
17142 15645 15690 1
17143 15646 15691 1
17144 15647 15692 1
17145 15647 15693 1
17146 15650 15694 1
17147 15651 15695 1
17148 15654 15696 1
17149 15654 15697 1
17150 15655 15698 1
17151 15655 15699 1
17152 15655 15700 1
17153 15656 15701 1
17154 15656 15702 1
17155 15656 15703 1
17156 15657 15704 1
17157 15657 15705 1
17158 15657 15706 1
17159 15658 15707 1
17160 15658 15708 1
17161 15658 15709 1
17162 15659 15710 1
17163 15659 15711 1
17164 15659 15712 1
17165 15660 15713 1
17166 15660 15714 1
17167 15660 15715 1
17168 15661 15716 1
17169 15662 15717 1
17170 15662 15718 1
17171 15662 15719 1
17172 15663 15720 1
17173 15663 15721 1
17174 15663 15722 1
17175 15664 15723 1
17176 15665 15724 1
17177 15668 15725 1
17178 15668 15726 1
17179 15668 15727 1
17180 15669 15728 1
17181 15669 15729 1
17182 15669 15730 1
17183 15733 15732 un
17184 15734 15733 un
17185 15735 15734 un
17186 15736 15735 un
17187 15731 15732 un
17188 15731 15736 un
17189 15738 15737 1
17190 15739 15738 un
17191 15740 15739 1
17192 15734 15737 1
17193 15733 15740 1
17194 15742 15741 un
17195 15743 15742 un
17196 15744 15743 un
17197 15739 15741 un
17198 15738 15744 un
17199 15746 15745 un
17200 15747 15746 un
17201 15748 15747 un
17202 15744 15745 un
17203 15743 15748 un
17204 15750 15749 1
17205 15751 15750 1
17206 15752 15751 un
17207 15747 15749 1
17208 15746 15752 un
17209 15754 15753 1
17210 15755 15754 un
17211 15756 15755 1
17212 15750 15753 1
17213 15749 15756 1
17214 15758 15757 un
17215 15759 15758 un
17216 15760 15759 un
17217 15752 15757 un
17218 15751 15760 un
17219 15762 15761 1
17220 15763 15762 un
17221 15764 15763 1
17222 15759 15761 1
17223 15758 15764 1
17224 15766 15765 1
17225 15767 15766 1
17226 15768 15767 un
17227 15763 15765 1
17228 15762 15768 un
17229 15770 15769 un
17230 15771 15770 un
17231 15772 15771 un
17232 15768 15769 un
17233 15767 15772 un
17234 15774 15773 1
17235 15775 15774 1
17236 15776 15775 1
17237 15772 15773 1
17238 15771 15776 1
17239 15778 15777 1
17240 15779 15778 un
17241 15770 15779 un
17242 15776 15777 1
17243 15781 15780 un
17244 15782 15781 un
17245 15783 15782 un
17246 15779 15780 un
17247 15778 15783 un
17248 15736 15784 1
17249 15784 15785 1
17250 15731 15786 1
17251 15735 15787 1
17252 15732 15788 1
17253 15741 15789 1
17254 15742 15790 1
17255 15748 15791 1
17256 15755 15792 1
17257 15754 15793 1
17258 15760 15794 1
17259 15757 15795 1
17260 15764 15796 2
17261 15761 15797 2
17262 15783 15798 1
17263 15782 15799 1
17264 15737 15800 1
17265 15737 15801 1
17266 15740 15802 1
17267 15740 15803 1
17268 15745 15804 1
17269 15753 15805 1
17270 15753 15806 1
17271 15754 15807 1
17272 15755 15808 1
17273 15756 15809 1
17274 15756 15810 1
17275 15765 15811 1
17276 15765 15812 1
17277 15766 15813 1
17278 15766 15814 1
17279 15773 15815 1
17280 15773 15816 1
17281 15774 15817 1
17282 15774 15818 1
17283 15775 15819 1
17284 15775 15820 1
17285 15776 15821 1
17286 15777 15822 1
17287 15777 15823 1
17288 15780 15824 1
17289 15781 15825 1
17290 15784 15826 1
17291 15784 15827 1
17292 15785 15828 1
17293 15785 15829 1
17294 15785 15830 1
17295 15786 15831 1
17296 15786 15832 1
17297 15786 15833 1
17298 15787 15834 1
17299 15787 15835 1
17300 15787 15836 1
17301 15788 15837 1
17302 15788 15838 1
17303 15788 15839 1
17304 15789 15840 1
17305 15789 15841 1
17306 15789 15842 1
17307 15790 15843 1
17308 15790 15844 1
17309 15790 15845 1
17310 15791 15846 1
17311 15792 15847 1
17312 15792 15848 1
17313 15792 15849 1
17314 15793 15850 1
17315 15793 15851 1
17316 15793 15852 1
17317 15794 15853 1
17318 15795 15854 1
17319 15798 15855 1
17320 15798 15856 1
17321 15798 15857 1
17322 15799 15858 1
17323 15799 15859 1
17324 15799 15860 1
17325 15863 15862 un
17326 15864 15863 un
17327 15865 15864 un
17328 15866 15865 un
17329 15861 15862 un
17330 15861 15866 un
17331 15868 15867 1
17332 15869 15868 un
17333 15870 15869 1
17334 15864 15867 1
17335 15863 15870 1
17336 15872 15871 un
17337 15873 15872 un
17338 15874 15873 un
17339 15869 15871 un
17340 15868 15874 un
17341 15876 15875 un
17342 15877 15876 un
17343 15878 15877 un
17344 15874 15875 un
17345 15873 15878 un
17346 15880 15879 1
17347 15881 15880 1
17348 15882 15881 un
17349 15877 15879 1
17350 15876 15882 un
17351 15884 15883 1
17352 15885 15884 un
17353 15886 15885 1
17354 15880 15883 1
17355 15879 15886 1
17356 15888 15887 un
17357 15889 15888 un
17358 15890 15889 un
17359 15882 15887 un
17360 15881 15890 un
17361 15892 15891 1
17362 15893 15892 un
17363 15894 15893 1
17364 15889 15891 1
17365 15888 15894 1
17366 15896 15895 1
17367 15897 15896 1
17368 15898 15897 un
17369 15893 15895 1
17370 15892 15898 un
17371 15900 15899 un
17372 15901 15900 un
17373 15902 15901 un
17374 15898 15899 un
17375 15897 15902 un
17376 15904 15903 1
17377 15905 15904 1
17378 15906 15905 1
17379 15902 15903 1
17380 15901 15906 1
17381 15908 15907 1
17382 15909 15908 un
17383 15900 15909 un
17384 15906 15907 1
17385 15911 15910 un
17386 15912 15911 un
17387 15913 15912 un
17388 15909 15910 un
17389 15908 15913 un
17390 15866 15914 1
17391 15914 15915 1
17392 15861 15916 1
17393 15865 15917 1
17394 15862 15918 1
17395 15871 15919 1
17396 15872 15920 1
17397 15878 15921 1
17398 15885 15922 1
17399 15884 15923 1
17400 15890 15924 1
17401 15887 15925 1
17402 15894 15926 2
17403 15891 15927 2
17404 15913 15928 1
17405 15912 15929 1
17406 15867 15930 1
17407 15867 15931 1
17408 15870 15932 1
17409 15870 15933 1
17410 15875 15934 1
17411 15883 15935 1
17412 15883 15936 1
17413 15884 15937 1
17414 15885 15938 1
17415 15886 15939 1
17416 15886 15940 1
17417 15895 15941 1
17418 15895 15942 1
17419 15896 15943 1
17420 15896 15944 1
17421 15903 15945 1
17422 15903 15946 1
17423 15904 15947 1
17424 15904 15948 1
17425 15905 15949 1
17426 15905 15950 1
17427 15906 15951 1
17428 15907 15952 1
17429 15907 15953 1
17430 15910 15954 1
17431 15911 15955 1
17432 15914 15956 1
17433 15914 15957 1
17434 15915 15958 1
17435 15915 15959 1
17436 15915 15960 1
17437 15916 15961 1
17438 15916 15962 1
17439 15916 15963 1
17440 15917 15964 1
17441 15917 15965 1
17442 15917 15966 1
17443 15918 15967 1
17444 15918 15968 1
17445 15918 15969 1
17446 15919 15970 1
17447 15919 15971 1
17448 15919 15972 1
17449 15920 15973 1
17450 15920 15974 1
17451 15920 15975 1
17452 15921 15976 1
17453 15922 15977 1
17454 15922 15978 1
17455 15922 15979 1
17456 15923 15980 1
17457 15923 15981 1
17458 15923 15982 1
17459 15924 15983 1
17460 15925 15984 1
17461 15928 15985 1
17462 15928 15986 1
17463 15928 15987 1
17464 15929 15988 1
17465 15929 15989 1
17466 15929 15990 1
17467 15993 15992 un
17468 15994 15993 un
17469 15995 15994 un
17470 15996 15995 un
17471 15991 15992 un
17472 15991 15996 un
17473 15998 15997 1
17474 15999 15998 un
17475 16000 15999 1
17476 15994 15997 1
17477 15993 16000 1
17478 16002 16001 un
17479 16003 16002 un
17480 16004 16003 un
17481 15999 16001 un
17482 15998 16004 un
17483 16006 16005 un
17484 16007 16006 un
17485 16008 16007 un
17486 16004 16005 un
17487 16003 16008 un
17488 16010 16009 1
17489 16011 16010 1
17490 16012 16011 un
17491 16007 16009 1
17492 16006 16012 un
17493 16014 16013 1
17494 16015 16014 un
17495 16016 16015 1
17496 16010 16013 1
17497 16009 16016 1
17498 16018 16017 un
17499 16019 16018 un
17500 16020 16019 un
17501 16012 16017 un
17502 16011 16020 un
17503 16022 16021 1
17504 16023 16022 un
17505 16024 16023 1
17506 16019 16021 1
17507 16018 16024 1
17508 16026 16025 1
17509 16027 16026 1
17510 16028 16027 un
17511 16023 16025 1
17512 16022 16028 un
17513 16030 16029 un
17514 16031 16030 un
17515 16032 16031 un
17516 16028 16029 un
17517 16027 16032 un
17518 16034 16033 1
17519 16035 16034 1
17520 16036 16035 1
17521 16032 16033 1
17522 16031 16036 1
17523 16038 16037 1
17524 16039 16038 un
17525 16030 16039 un
17526 16036 16037 1
17527 16041 16040 un
17528 16042 16041 un
17529 16043 16042 un
17530 16039 16040 un
17531 16038 16043 un
17532 15996 16044 1
17533 16044 16045 1
17534 15991 16046 1
17535 15995 16047 1
17536 15992 16048 1
17537 16001 16049 1
17538 16002 16050 1
17539 16008 16051 1
17540 16015 16052 1
17541 16014 16053 1
17542 16020 16054 1
17543 16017 16055 1
17544 16024 16056 2
17545 16021 16057 2
17546 16043 16058 1
17547 16042 16059 1
17548 15997 16060 1
17549 15997 16061 1
17550 16000 16062 1
17551 16000 16063 1
17552 16005 16064 1
17553 16013 16065 1
17554 16013 16066 1
17555 16014 16067 1
17556 16015 16068 1
17557 16016 16069 1
17558 16016 16070 1
17559 16025 16071 1
17560 16025 16072 1
17561 16026 16073 1
17562 16026 16074 1
17563 16033 16075 1
17564 16033 16076 1
17565 16034 16077 1
17566 16034 16078 1
17567 16035 16079 1
17568 16035 16080 1
17569 16036 16081 1
17570 16037 16082 1
17571 16037 16083 1
17572 16040 16084 1
17573 16041 16085 1
17574 16044 16086 1
17575 16044 16087 1
17576 16045 16088 1
17577 16045 16089 1
17578 16045 16090 1
17579 16046 16091 1
17580 16046 16092 1
17581 16046 16093 1
17582 16047 16094 1
17583 16047 16095 1
17584 16047 16096 1
17585 16048 16097 1
17586 16048 16098 1
17587 16048 16099 1
17588 16049 16100 1
17589 16049 16101 1
17590 16049 16102 1
17591 16050 16103 1
17592 16050 16104 1
17593 16050 16105 1
17594 16051 16106 1
17595 16052 16107 1
17596 16052 16108 1
17597 16052 16109 1
17598 16053 16110 1
17599 16053 16111 1
17600 16053 16112 1
17601 16054 16113 1
17602 16055 16114 1
17603 16058 16115 1
17604 16058 16116 1
17605 16058 16117 1
17606 16059 16118 1
17607 16059 16119 1
17608 16059 16120 1
17609 16123 16122 un
17610 16124 16123 un
17611 16125 16124 un
17612 16126 16125 un
17613 16121 16122 un
17614 16121 16126 un
17615 16128 16127 1
17616 16129 16128 un
17617 16130 16129 1
17618 16124 16127 1
17619 16123 16130 1
17620 16132 16131 un
17621 16133 16132 un
17622 16134 16133 un
17623 16129 16131 un
17624 16128 16134 un
17625 16136 16135 un
17626 16137 16136 un
17627 16138 16137 un
17628 16134 16135 un
17629 16133 16138 un
17630 16140 16139 1
17631 16141 16140 1
17632 16142 16141 un
17633 16137 16139 1
17634 16136 16142 un
17635 16144 16143 1
17636 16145 16144 un
17637 16146 16145 1
17638 16140 16143 1
17639 16139 16146 1
17640 16148 16147 un
17641 16149 16148 un
17642 16150 16149 un
17643 16142 16147 un
17644 16141 16150 un
17645 16152 16151 1
17646 16153 16152 un
17647 16154 16153 1
17648 16149 16151 1
17649 16148 16154 1
17650 16156 16155 1
17651 16157 16156 1
17652 16158 16157 un
17653 16153 16155 1
17654 16152 16158 un
17655 16160 16159 un
17656 16161 16160 un
17657 16162 16161 un
17658 16158 16159 un
17659 16157 16162 un
17660 16164 16163 1
17661 16165 16164 1
17662 16166 16165 1
17663 16162 16163 1
17664 16161 16166 1
17665 16168 16167 1
17666 16169 16168 un
17667 16160 16169 un
17668 16166 16167 1
17669 16171 16170 un
17670 16172 16171 un
17671 16173 16172 un
17672 16169 16170 un
17673 16168 16173 un
17674 16126 16174 1
17675 16174 16175 1
17676 16121 16176 1
17677 16125 16177 1
17678 16122 16178 1
17679 16131 16179 1
17680 16132 16180 1
17681 16138 16181 1
17682 16145 16182 1
17683 16144 16183 1
17684 16150 16184 1
17685 16147 16185 1
17686 16154 16186 2
17687 16151 16187 2
17688 16173 16188 1
17689 16172 16189 1
17690 16127 16190 1
17691 16127 16191 1
17692 16130 16192 1
17693 16130 16193 1
17694 16135 16194 1
17695 16143 16195 1
17696 16143 16196 1
17697 16144 16197 1
17698 16145 16198 1
17699 16146 16199 1
17700 16146 16200 1
17701 16155 16201 1
17702 16155 16202 1
17703 16156 16203 1
17704 16156 16204 1
17705 16163 16205 1
17706 16163 16206 1
17707 16164 16207 1
17708 16164 16208 1
17709 16165 16209 1
17710 16165 16210 1
17711 16166 16211 1
17712 16167 16212 1
17713 16167 16213 1
17714 16170 16214 1
17715 16171 16215 1
17716 16174 16216 1
17717 16174 16217 1
17718 16175 16218 1
17719 16175 16219 1
17720 16175 16220 1
17721 16176 16221 1
17722 16176 16222 1
17723 16176 16223 1
17724 16177 16224 1
17725 16177 16225 1
17726 16177 16226 1
17727 16178 16227 1
17728 16178 16228 1
17729 16178 16229 1
17730 16179 16230 1
17731 16179 16231 1
17732 16179 16232 1
17733 16180 16233 1
17734 16180 16234 1
17735 16180 16235 1
17736 16181 16236 1
17737 16182 16237 1
17738 16182 16238 1
17739 16182 16239 1
17740 16183 16240 1
17741 16183 16241 1
17742 16183 16242 1
17743 16184 16243 1
17744 16185 16244 1
17745 16188 16245 1
17746 16188 16246 1
17747 16188 16247 1
17748 16189 16248 1
17749 16189 16249 1
17750 16189 16250 1
17751 16253 16252 un
17752 16254 16253 un
17753 16255 16254 un
17754 16256 16255 un
17755 16251 16252 un
17756 16251 16256 un
17757 16258 16257 1
17758 16259 16258 un
17759 16260 16259 1
17760 16254 16257 1
17761 16253 16260 1
17762 16262 16261 un
17763 16263 16262 un
17764 16264 16263 un
17765 16259 16261 un
17766 16258 16264 un
17767 16266 16265 un
17768 16267 16266 un
17769 16268 16267 un
17770 16264 16265 un
17771 16263 16268 un
17772 16270 16269 1
17773 16271 16270 1
17774 16272 16271 un
17775 16267 16269 1
17776 16266 16272 un
17777 16274 16273 1
17778 16275 16274 un
17779 16276 16275 1
17780 16270 16273 1
17781 16269 16276 1
17782 16278 16277 un
17783 16279 16278 un
17784 16280 16279 un
17785 16272 16277 un
17786 16271 16280 un
17787 16282 16281 1
17788 16283 16282 un
17789 16284 16283 1
17790 16279 16281 1
17791 16278 16284 1
17792 16286 16285 1
17793 16287 16286 1
17794 16288 16287 un
17795 16283 16285 1
17796 16282 16288 un
17797 16290 16289 un
17798 16291 16290 un
17799 16292 16291 un
17800 16288 16289 un
17801 16287 16292 un
17802 16294 16293 1
17803 16295 16294 1
17804 16296 16295 1
17805 16292 16293 1
17806 16291 16296 1
17807 16298 16297 1
17808 16299 16298 un
17809 16290 16299 un
17810 16296 16297 1
17811 16301 16300 un
17812 16302 16301 un
17813 16303 16302 un
17814 16299 16300 un
17815 16298 16303 un
17816 16256 16304 1
17817 16304 16305 1
17818 16251 16306 1
17819 16255 16307 1
17820 16252 16308 1
17821 16261 16309 1
17822 16262 16310 1
17823 16268 16311 1
17824 16275 16312 1
17825 16274 16313 1
17826 16280 16314 1
17827 16277 16315 1
17828 16284 16316 2
17829 16281 16317 2
17830 16303 16318 1
17831 16302 16319 1
17832 16257 16320 1
17833 16257 16321 1
17834 16260 16322 1
17835 16260 16323 1
17836 16265 16324 1
17837 16273 16325 1
17838 16273 16326 1
17839 16274 16327 1
17840 16275 16328 1
17841 16276 16329 1
17842 16276 16330 1
17843 16285 16331 1
17844 16285 16332 1
17845 16286 16333 1
17846 16286 16334 1
17847 16293 16335 1
17848 16293 16336 1
17849 16294 16337 1
17850 16294 16338 1
17851 16295 16339 1
17852 16295 16340 1
17853 16296 16341 1
17854 16297 16342 1
17855 16297 16343 1
17856 16300 16344 1
17857 16301 16345 1
17858 16304 16346 1
17859 16304 16347 1
17860 16305 16348 1
17861 16305 16349 1
17862 16305 16350 1
17863 16306 16351 1
17864 16306 16352 1
17865 16306 16353 1
17866 16307 16354 1
17867 16307 16355 1
17868 16307 16356 1
17869 16308 16357 1
17870 16308 16358 1
17871 16308 16359 1
17872 16309 16360 1
17873 16309 16361 1
17874 16309 16362 1
17875 16310 16363 1
17876 16310 16364 1
17877 16310 16365 1
17878 16311 16366 1
17879 16312 16367 1
17880 16312 16368 1
17881 16312 16369 1
17882 16313 16370 1
17883 16313 16371 1
17884 16313 16372 1
17885 16314 16373 1
17886 16315 16374 1
17887 16318 16375 1
17888 16318 16376 1
17889 16318 16377 1
17890 16319 16378 1
17891 16319 16379 1
17892 16319 16380 1
17893 16383 16382 un
17894 16384 16383 un
17895 16385 16384 un
17896 16386 16385 un
17897 16381 16382 un
17898 16381 16386 un
17899 16388 16387 1
17900 16389 16388 un
17901 16390 16389 1
17902 16384 16387 1
17903 16383 16390 1
17904 16392 16391 un
17905 16393 16392 un
17906 16394 16393 un
17907 16389 16391 un
17908 16388 16394 un
17909 16396 16395 un
17910 16397 16396 un
17911 16398 16397 un
17912 16394 16395 un
17913 16393 16398 un
17914 16400 16399 1
17915 16401 16400 1
17916 16402 16401 un
17917 16397 16399 1
17918 16396 16402 un
17919 16404 16403 1
17920 16405 16404 un
17921 16406 16405 1
17922 16400 16403 1
17923 16399 16406 1
17924 16408 16407 un
17925 16409 16408 un
17926 16410 16409 un
17927 16402 16407 un
17928 16401 16410 un
17929 16412 16411 1
17930 16413 16412 un
17931 16414 16413 1
17932 16409 16411 1
17933 16408 16414 1
17934 16416 16415 1
17935 16417 16416 1
17936 16418 16417 un
17937 16413 16415 1
17938 16412 16418 un
17939 16420 16419 un
17940 16421 16420 un
17941 16422 16421 un
17942 16418 16419 un
17943 16417 16422 un
17944 16424 16423 1
17945 16425 16424 1
17946 16426 16425 1
17947 16422 16423 1
17948 16421 16426 1
17949 16428 16427 1
17950 16429 16428 un
17951 16420 16429 un
17952 16426 16427 1
17953 16431 16430 un
17954 16432 16431 un
17955 16433 16432 un
17956 16429 16430 un
17957 16428 16433 un
17958 16386 16434 1
17959 16434 16435 1
17960 16381 16436 1
17961 16385 16437 1
17962 16382 16438 1
17963 16391 16439 1
17964 16392 16440 1
17965 16398 16441 1
17966 16405 16442 1
17967 16404 16443 1
17968 16410 16444 1
17969 16407 16445 1
17970 16414 16446 2
17971 16411 16447 2
17972 16433 16448 1
17973 16432 16449 1
17974 16387 16450 1
17975 16387 16451 1
17976 16390 16452 1
17977 16390 16453 1
17978 16395 16454 1
17979 16403 16455 1
17980 16403 16456 1
17981 16404 16457 1
17982 16405 16458 1
17983 16406 16459 1
17984 16406 16460 1
17985 16415 16461 1
17986 16415 16462 1
17987 16416 16463 1
17988 16416 16464 1
17989 16423 16465 1
17990 16423 16466 1
17991 16424 16467 1
17992 16424 16468 1
17993 16425 16469 1
17994 16425 16470 1
17995 16426 16471 1
17996 16427 16472 1
17997 16427 16473 1
17998 16430 16474 1
17999 16431 16475 1
18000 16434 16476 1
18001 16434 16477 1
18002 16435 16478 1
18003 16435 16479 1
18004 16435 16480 1
18005 16436 16481 1
18006 16436 16482 1
18007 16436 16483 1
18008 16437 16484 1
18009 16437 16485 1
18010 16437 16486 1
18011 16438 16487 1
18012 16438 16488 1
18013 16438 16489 1
18014 16439 16490 1
18015 16439 16491 1
18016 16439 16492 1
18017 16440 16493 1
18018 16440 16494 1
18019 16440 16495 1
18020 16441 16496 1
18021 16442 16497 1
18022 16442 16498 1
18023 16442 16499 1
18024 16443 16500 1
18025 16443 16501 1
18026 16443 16502 1
18027 16444 16503 1
18028 16445 16504 1
18029 16448 16505 1
18030 16448 16506 1
18031 16448 16507 1
18032 16449 16508 1
18033 16449 16509 1
18034 16449 16510 1
18035 16513 16512 un
18036 16514 16513 un
18037 16515 16514 un
18038 16516 16515 un
18039 16511 16512 un
18040 16511 16516 un
18041 16518 16517 1
18042 16519 16518 un
18043 16520 16519 1
18044 16514 16517 1
18045 16513 16520 1
18046 16522 16521 un
18047 16523 16522 un
18048 16524 16523 un
18049 16519 16521 un
18050 16518 16524 un
18051 16526 16525 un
18052 16527 16526 un
18053 16528 16527 un
18054 16524 16525 un
18055 16523 16528 un
18056 16530 16529 1
18057 16531 16530 1
18058 16532 16531 un
18059 16527 16529 1
18060 16526 16532 un
18061 16534 16533 1
18062 16535 16534 un
18063 16536 16535 1
18064 16530 16533 1
18065 16529 16536 1
18066 16538 16537 un
18067 16539 16538 un
18068 16540 16539 un
18069 16532 16537 un
18070 16531 16540 un
18071 16542 16541 1
18072 16543 16542 un
18073 16544 16543 1
18074 16539 16541 1
18075 16538 16544 1
18076 16546 16545 1
18077 16547 16546 1
18078 16548 16547 un
18079 16543 16545 1
18080 16542 16548 un
18081 16550 16549 un
18082 16551 16550 un
18083 16552 16551 un
18084 16548 16549 un
18085 16547 16552 un
18086 16554 16553 1
18087 16555 16554 1
18088 16556 16555 1
18089 16552 16553 1
18090 16551 16556 1
18091 16558 16557 1
18092 16559 16558 un
18093 16550 16559 un
18094 16556 16557 1
18095 16561 16560 un
18096 16562 16561 un
18097 16563 16562 un
18098 16559 16560 un
18099 16558 16563 un
18100 16516 16564 1
18101 16564 16565 1
18102 16511 16566 1
18103 16515 16567 1
18104 16512 16568 1
18105 16521 16569 1
18106 16522 16570 1
18107 16528 16571 1
18108 16535 16572 1
18109 16534 16573 1
18110 16540 16574 1
18111 16537 16575 1
18112 16544 16576 2
18113 16541 16577 2
18114 16563 16578 1
18115 16562 16579 1
18116 16517 16580 1
18117 16517 16581 1
18118 16520 16582 1
18119 16520 16583 1
18120 16525 16584 1
18121 16533 16585 1
18122 16533 16586 1
18123 16534 16587 1
18124 16535 16588 1
18125 16536 16589 1
18126 16536 16590 1
18127 16545 16591 1
18128 16545 16592 1
18129 16546 16593 1
18130 16546 16594 1
18131 16553 16595 1
18132 16553 16596 1
18133 16554 16597 1
18134 16554 16598 1
18135 16555 16599 1
18136 16555 16600 1
18137 16556 16601 1
18138 16557 16602 1
18139 16557 16603 1
18140 16560 16604 1
18141 16561 16605 1
18142 16564 16606 1
18143 16564 16607 1
18144 16565 16608 1
18145 16565 16609 1
18146 16565 16610 1
18147 16566 16611 1
18148 16566 16612 1
18149 16566 16613 1
18150 16567 16614 1
18151 16567 16615 1
18152 16567 16616 1
18153 16568 16617 1
18154 16568 16618 1
18155 16568 16619 1
18156 16569 16620 1
18157 16569 16621 1
18158 16569 16622 1
18159 16570 16623 1
18160 16570 16624 1
18161 16570 16625 1
18162 16571 16626 1
18163 16572 16627 1
18164 16572 16628 1
18165 16572 16629 1
18166 16573 16630 1
18167 16573 16631 1
18168 16573 16632 1
18169 16574 16633 1
18170 16575 16634 1
18171 16578 16635 1
18172 16578 16636 1
18173 16578 16637 1
18174 16579 16638 1
18175 16579 16639 1
18176 16579 16640 1
18177 16643 16642 un
18178 16644 16643 un
18179 16645 16644 un
18180 16646 16645 un
18181 16641 16642 un
18182 16641 16646 un
18183 16648 16647 1
18184 16649 16648 un
18185 16650 16649 1
18186 16644 16647 1
18187 16643 16650 1
18188 16652 16651 un
18189 16653 16652 un
18190 16654 16653 un
18191 16649 16651 un
18192 16648 16654 un
18193 16656 16655 un
18194 16657 16656 un
18195 16658 16657 un
18196 16654 16655 un
18197 16653 16658 un
18198 16660 16659 1
18199 16661 16660 1
18200 16662 16661 un
18201 16657 16659 1
18202 16656 16662 un
18203 16664 16663 1
18204 16665 16664 un
18205 16666 16665 1
18206 16660 16663 1
18207 16659 16666 1
18208 16668 16667 un
18209 16669 16668 un
18210 16670 16669 un
18211 16662 16667 un
18212 16661 16670 un
18213 16672 16671 1
18214 16673 16672 un
18215 16674 16673 1
18216 16669 16671 1
18217 16668 16674 1
18218 16676 16675 1
18219 16677 16676 1
18220 16678 16677 un
18221 16673 16675 1
18222 16672 16678 un
18223 16680 16679 un
18224 16681 16680 un
18225 16682 16681 un
18226 16678 16679 un
18227 16677 16682 un
18228 16684 16683 1
18229 16685 16684 1
18230 16686 16685 1
18231 16682 16683 1
18232 16681 16686 1
18233 16688 16687 1
18234 16689 16688 un
18235 16680 16689 un
18236 16686 16687 1
18237 16691 16690 un
18238 16692 16691 un
18239 16693 16692 un
18240 16689 16690 un
18241 16688 16693 un
18242 16646 16694 1
18243 16694 16695 1
18244 16641 16696 1
18245 16645 16697 1
18246 16642 16698 1
18247 16651 16699 1
18248 16652 16700 1
18249 16658 16701 1
18250 16665 16702 1
18251 16664 16703 1
18252 16670 16704 1
18253 16667 16705 1
18254 16674 16706 2
18255 16671 16707 2
18256 16693 16708 1
18257 16692 16709 1
18258 16647 16710 1
18259 16647 16711 1
18260 16650 16712 1
18261 16650 16713 1
18262 16655 16714 1
18263 16663 16715 1
18264 16663 16716 1
18265 16664 16717 1
18266 16665 16718 1
18267 16666 16719 1
18268 16666 16720 1
18269 16675 16721 1
18270 16675 16722 1
18271 16676 16723 1
18272 16676 16724 1
18273 16683 16725 1
18274 16683 16726 1
18275 16684 16727 1
18276 16684 16728 1
18277 16685 16729 1
18278 16685 16730 1
18279 16686 16731 1
18280 16687 16732 1
18281 16687 16733 1
18282 16690 16734 1
18283 16691 16735 1
18284 16694 16736 1
18285 16694 16737 1
18286 16695 16738 1
18287 16695 16739 1
18288 16695 16740 1
18289 16696 16741 1
18290 16696 16742 1
18291 16696 16743 1
18292 16697 16744 1
18293 16697 16745 1
18294 16697 16746 1
18295 16698 16747 1
18296 16698 16748 1
18297 16698 16749 1
18298 16699 16750 1
18299 16699 16751 1
18300 16699 16752 1
18301 16700 16753 1
18302 16700 16754 1
18303 16700 16755 1
18304 16701 16756 1
18305 16702 16757 1
18306 16702 16758 1
18307 16702 16759 1
18308 16703 16760 1
18309 16703 16761 1
18310 16703 16762 1
18311 16704 16763 1
18312 16705 16764 1
18313 16708 16765 1
18314 16708 16766 1
18315 16708 16767 1
18316 16709 16768 1
18317 16709 16769 1
18318 16709 16770 1
18319 16773 16772 un
18320 16774 16773 un
18321 16775 16774 un
18322 16776 16775 un
18323 16771 16772 un
18324 16771 16776 un
18325 16778 16777 1
18326 16779 16778 un
18327 16780 16779 1
18328 16774 16777 1
18329 16773 16780 1
18330 16782 16781 un
18331 16783 16782 un
18332 16784 16783 un
18333 16779 16781 un
18334 16778 16784 un
18335 16786 16785 un
18336 16787 16786 un
18337 16788 16787 un
18338 16784 16785 un
18339 16783 16788 un
18340 16790 16789 1
18341 16791 16790 1
18342 16792 16791 un
18343 16787 16789 1
18344 16786 16792 un
18345 16794 16793 1
18346 16795 16794 un
18347 16796 16795 1
18348 16790 16793 1
18349 16789 16796 1
18350 16798 16797 un
18351 16799 16798 un
18352 16800 16799 un
18353 16792 16797 un
18354 16791 16800 un
18355 16802 16801 1
18356 16803 16802 un
18357 16804 16803 1
18358 16799 16801 1
18359 16798 16804 1
18360 16806 16805 1
18361 16807 16806 1
18362 16808 16807 un
18363 16803 16805 1
18364 16802 16808 un
18365 16810 16809 un
18366 16811 16810 un
18367 16812 16811 un
18368 16808 16809 un
18369 16807 16812 un
18370 16814 16813 1
18371 16815 16814 1
18372 16816 16815 1
18373 16812 16813 1
18374 16811 16816 1
18375 16818 16817 1
18376 16819 16818 un
18377 16810 16819 un
18378 16816 16817 1
18379 16821 16820 un
18380 16822 16821 un
18381 16823 16822 un
18382 16819 16820 un
18383 16818 16823 un
18384 16776 16824 1
18385 16824 16825 1
18386 16771 16826 1
18387 16775 16827 1
18388 16772 16828 1
18389 16781 16829 1
18390 16782 16830 1
18391 16788 16831 1
18392 16795 16832 1
18393 16794 16833 1
18394 16800 16834 1
18395 16797 16835 1
18396 16804 16836 2
18397 16801 16837 2
18398 16823 16838 1
18399 16822 16839 1
18400 16777 16840 1
18401 16777 16841 1
18402 16780 16842 1
18403 16780 16843 1
18404 16785 16844 1
18405 16793 16845 1
18406 16793 16846 1
18407 16794 16847 1
18408 16795 16848 1
18409 16796 16849 1
18410 16796 16850 1
18411 16805 16851 1
18412 16805 16852 1
18413 16806 16853 1
18414 16806 16854 1
18415 16813 16855 1
18416 16813 16856 1
18417 16814 16857 1
18418 16814 16858 1
18419 16815 16859 1
18420 16815 16860 1
18421 16816 16861 1
18422 16817 16862 1
18423 16817 16863 1
18424 16820 16864 1
18425 16821 16865 1
18426 16824 16866 1
18427 16824 16867 1
18428 16825 16868 1
18429 16825 16869 1
18430 16825 16870 1
18431 16826 16871 1
18432 16826 16872 1
18433 16826 16873 1
18434 16827 16874 1
18435 16827 16875 1
18436 16827 16876 1
18437 16828 16877 1
18438 16828 16878 1
18439 16828 16879 1
18440 16829 16880 1
18441 16829 16881 1
18442 16829 16882 1
18443 16830 16883 1
18444 16830 16884 1
18445 16830 16885 1
18446 16831 16886 1
18447 16832 16887 1
18448 16832 16888 1
18449 16832 16889 1
18450 16833 16890 1
18451 16833 16891 1
18452 16833 16892 1
18453 16834 16893 1
18454 16835 16894 1
18455 16838 16895 1
18456 16838 16896 1
18457 16838 16897 1
18458 16839 16898 1
18459 16839 16899 1
18460 16839 16900 1
18461 16903 16902 un
18462 16904 16903 un
18463 16905 16904 un
18464 16906 16905 un
18465 16901 16902 un
18466 16901 16906 un
18467 16908 16907 1
18468 16909 16908 un
18469 16910 16909 1
18470 16904 16907 1
18471 16903 16910 1
18472 16912 16911 un
18473 16913 16912 un
18474 16914 16913 un
18475 16909 16911 un
18476 16908 16914 un
18477 16916 16915 un
18478 16917 16916 un
18479 16918 16917 un
18480 16914 16915 un
18481 16913 16918 un
18482 16920 16919 1
18483 16921 16920 1
18484 16922 16921 un
18485 16917 16919 1
18486 16916 16922 un
18487 16924 16923 1
18488 16925 16924 un
18489 16926 16925 1
18490 16920 16923 1
18491 16919 16926 1
18492 16928 16927 un
18493 16929 16928 un
18494 16930 16929 un
18495 16922 16927 un
18496 16921 16930 un
18497 16932 16931 1
18498 16933 16932 un
18499 16934 16933 1
18500 16929 16931 1
18501 16928 16934 1
18502 16936 16935 1
18503 16937 16936 1
18504 16938 16937 un
18505 16933 16935 1
18506 16932 16938 un
18507 16940 16939 un
18508 16941 16940 un
18509 16942 16941 un
18510 16938 16939 un
18511 16937 16942 un
18512 16944 16943 1
18513 16945 16944 1
18514 16946 16945 1
18515 16942 16943 1
18516 16941 16946 1
18517 16948 16947 1
18518 16949 16948 un
18519 16940 16949 un
18520 16946 16947 1
18521 16951 16950 un
18522 16952 16951 un
18523 16953 16952 un
18524 16949 16950 un
18525 16948 16953 un
18526 16906 16954 1
18527 16954 16955 1
18528 16901 16956 1
18529 16905 16957 1
18530 16902 16958 1
18531 16911 16959 1
18532 16912 16960 1
18533 16918 16961 1
18534 16925 16962 1
18535 16924 16963 1
18536 16930 16964 1
18537 16927 16965 1
18538 16934 16966 2
18539 16931 16967 2
18540 16953 16968 1
18541 16952 16969 1
18542 16907 16970 1
18543 16907 16971 1
18544 16910 16972 1
18545 16910 16973 1
18546 16915 16974 1
18547 16923 16975 1
18548 16923 16976 1
18549 16924 16977 1
18550 16925 16978 1
18551 16926 16979 1
18552 16926 16980 1
18553 16935 16981 1
18554 16935 16982 1
18555 16936 16983 1
18556 16936 16984 1
18557 16943 16985 1
18558 16943 16986 1
18559 16944 16987 1
18560 16944 16988 1
18561 16945 16989 1
18562 16945 16990 1
18563 16946 16991 1
18564 16947 16992 1
18565 16947 16993 1
18566 16950 16994 1
18567 16951 16995 1
18568 16954 16996 1
18569 16954 16997 1
18570 16955 16998 1
18571 16955 16999 1
18572 16955 17000 1
18573 16956 17001 1
18574 16956 17002 1
18575 16956 17003 1
18576 16957 17004 1
18577 16957 17005 1
18578 16957 17006 1
18579 16958 17007 1
18580 16958 17008 1
18581 16958 17009 1
18582 16959 17010 1
18583 16959 17011 1
18584 16959 17012 1
18585 16960 17013 1
18586 16960 17014 1
18587 16960 17015 1
18588 16961 17016 1
18589 16962 17017 1
18590 16962 17018 1
18591 16962 17019 1
18592 16963 17020 1
18593 16963 17021 1
18594 16963 17022 1
18595 16964 17023 1
18596 16965 17024 1
18597 16968 17025 1
18598 16968 17026 1
18599 16968 17027 1
18600 16969 17028 1
18601 16969 17029 1
18602 16969 17030 1
18603 17033 17032 un
18604 17034 17033 un
18605 17035 17034 un
18606 17036 17035 un
18607 17031 17032 un
18608 17031 17036 un
18609 17038 17037 1
18610 17039 17038 un
18611 17040 17039 1
18612 17034 17037 1
18613 17033 17040 1
18614 17042 17041 un
18615 17043 17042 un
18616 17044 17043 un
18617 17039 17041 un
18618 17038 17044 un
18619 17046 17045 un
18620 17047 17046 un
18621 17048 17047 un
18622 17044 17045 un
18623 17043 17048 un
18624 17050 17049 1
18625 17051 17050 1
18626 17052 17051 un
18627 17047 17049 1
18628 17046 17052 un
18629 17054 17053 1
18630 17055 17054 un
18631 17056 17055 1
18632 17050 17053 1
18633 17049 17056 1
18634 17058 17057 un
18635 17059 17058 un
18636 17060 17059 un
18637 17052 17057 un
18638 17051 17060 un
18639 17062 17061 1
18640 17063 17062 un
18641 17064 17063 1
18642 17059 17061 1
18643 17058 17064 1
18644 17066 17065 1
18645 17067 17066 1
18646 17068 17067 un
18647 17063 17065 1
18648 17062 17068 un
18649 17070 17069 un
18650 17071 17070 un
18651 17072 17071 un
18652 17068 17069 un
18653 17067 17072 un
18654 17074 17073 1
18655 17075 17074 1
18656 17076 17075 1
18657 17072 17073 1
18658 17071 17076 1
18659 17078 17077 1
18660 17079 17078 un
18661 17070 17079 un
18662 17076 17077 1
18663 17081 17080 un
18664 17082 17081 un
18665 17083 17082 un
18666 17079 17080 un
18667 17078 17083 un
18668 17036 17084 1
18669 17084 17085 1
18670 17031 17086 1
18671 17035 17087 1
18672 17032 17088 1
18673 17041 17089 1
18674 17042 17090 1
18675 17048 17091 1
18676 17055 17092 1
18677 17054 17093 1
18678 17060 17094 1
18679 17057 17095 1
18680 17064 17096 2
18681 17061 17097 2
18682 17083 17098 1
18683 17082 17099 1
18684 17037 17100 1
18685 17037 17101 1
18686 17040 17102 1
18687 17040 17103 1
18688 17045 17104 1
18689 17053 17105 1
18690 17053 17106 1
18691 17054 17107 1
18692 17055 17108 1
18693 17056 17109 1
18694 17056 17110 1
18695 17065 17111 1
18696 17065 17112 1
18697 17066 17113 1
18698 17066 17114 1
18699 17073 17115 1
18700 17073 17116 1
18701 17074 17117 1
18702 17074 17118 1
18703 17075 17119 1
18704 17075 17120 1
18705 17076 17121 1
18706 17077 17122 1
18707 17077 17123 1
18708 17080 17124 1
18709 17081 17125 1
18710 17084 17126 1
18711 17084 17127 1
18712 17085 17128 1
18713 17085 17129 1
18714 17085 17130 1
18715 17086 17131 1
18716 17086 17132 1
18717 17086 17133 1
18718 17087 17134 1
18719 17087 17135 1
18720 17087 17136 1
18721 17088 17137 1
18722 17088 17138 1
18723 17088 17139 1
18724 17089 17140 1
18725 17089 17141 1
18726 17089 17142 1
18727 17090 17143 1
18728 17090 17144 1
18729 17090 17145 1
18730 17091 17146 1
18731 17092 17147 1
18732 17092 17148 1
18733 17092 17149 1
18734 17093 17150 1
18735 17093 17151 1
18736 17093 17152 1
18737 17094 17153 1
18738 17095 17154 1
18739 17098 17155 1
18740 17098 17156 1
18741 17098 17157 1
18742 17099 17158 1
18743 17099 17159 1
18744 17099 17160 1
18745 17163 17162 un
18746 17164 17163 un
18747 17165 17164 un
18748 17166 17165 un
18749 17161 17162 un
18750 17161 17166 un
18751 17168 17167 1
18752 17169 17168 un
18753 17170 17169 1
18754 17164 17167 1
18755 17163 17170 1
18756 17172 17171 un
18757 17173 17172 un
18758 17174 17173 un
18759 17169 17171 un
18760 17168 17174 un
18761 17176 17175 un
18762 17177 17176 un
18763 17178 17177 un
18764 17174 17175 un
18765 17173 17178 un
18766 17180 17179 1
18767 17181 17180 1
18768 17182 17181 un
18769 17177 17179 1
18770 17176 17182 un
18771 17184 17183 1
18772 17185 17184 un
18773 17186 17185 1
18774 17180 17183 1
18775 17179 17186 1
18776 17188 17187 un
18777 17189 17188 un
18778 17190 17189 un
18779 17182 17187 un
18780 17181 17190 un
18781 17192 17191 1
18782 17193 17192 un
18783 17194 17193 1
18784 17189 17191 1
18785 17188 17194 1
18786 17196 17195 1
18787 17197 17196 1
18788 17198 17197 un
18789 17193 17195 1
18790 17192 17198 un
18791 17200 17199 un
18792 17201 17200 un
18793 17202 17201 un
18794 17198 17199 un
18795 17197 17202 un
18796 17204 17203 1
18797 17205 17204 1
18798 17206 17205 1
18799 17202 17203 1
18800 17201 17206 1
18801 17208 17207 1
18802 17209 17208 un
18803 17200 17209 un
18804 17206 17207 1
18805 17211 17210 un
18806 17212 17211 un
18807 17213 17212 un
18808 17209 17210 un
18809 17208 17213 un
18810 17166 17214 1
18811 17214 17215 1
18812 17161 17216 1
18813 17165 17217 1
18814 17162 17218 1
18815 17171 17219 1
18816 17172 17220 1
18817 17178 17221 1
18818 17185 17222 1
18819 17184 17223 1
18820 17190 17224 1
18821 17187 17225 1
18822 17194 17226 2
18823 17191 17227 2
18824 17213 17228 1
18825 17212 17229 1
18826 17167 17230 1
18827 17167 17231 1
18828 17170 17232 1
18829 17170 17233 1
18830 17175 17234 1
18831 17183 17235 1
18832 17183 17236 1
18833 17184 17237 1
18834 17185 17238 1
18835 17186 17239 1
18836 17186 17240 1
18837 17195 17241 1
18838 17195 17242 1
18839 17196 17243 1
18840 17196 17244 1
18841 17203 17245 1
18842 17203 17246 1
18843 17204 17247 1
18844 17204 17248 1
18845 17205 17249 1
18846 17205 17250 1
18847 17206 17251 1
18848 17207 17252 1
18849 17207 17253 1
18850 17210 17254 1
18851 17211 17255 1
18852 17214 17256 1
18853 17214 17257 1
18854 17215 17258 1
18855 17215 17259 1
18856 17215 17260 1
18857 17216 17261 1
18858 17216 17262 1
18859 17216 17263 1
18860 17217 17264 1
18861 17217 17265 1
18862 17217 17266 1
18863 17218 17267 1
18864 17218 17268 1
18865 17218 17269 1
18866 17219 17270 1
18867 17219 17271 1
18868 17219 17272 1
18869 17220 17273 1
18870 17220 17274 1
18871 17220 17275 1
18872 17221 17276 1
18873 17222 17277 1
18874 17222 17278 1
18875 17222 17279 1
18876 17223 17280 1
18877 17223 17281 1
18878 17223 17282 1
18879 17224 17283 1
18880 17225 17284 1
18881 17228 17285 1
18882 17228 17286 1
18883 17228 17287 1
18884 17229 17288 1
18885 17229 17289 1
18886 17229 17290 1
18887 17293 17292 un
18888 17294 17293 un
18889 17295 17294 un
18890 17296 17295 un
18891 17291 17292 un
18892 17291 17296 un
18893 17298 17297 1
18894 17299 17298 un
18895 17300 17299 1
18896 17294 17297 1
18897 17293 17300 1
18898 17302 17301 un
18899 17303 17302 un
18900 17304 17303 un
18901 17299 17301 un
18902 17298 17304 un
18903 17306 17305 un
18904 17307 17306 un
18905 17308 17307 un
18906 17304 17305 un
18907 17303 17308 un
18908 17310 17309 1
18909 17311 17310 1
18910 17312 17311 un
18911 17307 17309 1
18912 17306 17312 un
18913 17314 17313 1
18914 17315 17314 un
18915 17316 17315 1
18916 17310 17313 1
18917 17309 17316 1
18918 17318 17317 un
18919 17319 17318 un
18920 17320 17319 un
18921 17312 17317 un
18922 17311 17320 un
18923 17322 17321 1
18924 17323 17322 un
18925 17324 17323 1
18926 17319 17321 1
18927 17318 17324 1
18928 17326 17325 1
18929 17327 17326 1
18930 17328 17327 un
18931 17323 17325 1
18932 17322 17328 un
18933 17330 17329 un
18934 17331 17330 un
18935 17332 17331 un
18936 17328 17329 un
18937 17327 17332 un
18938 17334 17333 1
18939 17335 17334 1
18940 17336 17335 1
18941 17332 17333 1
18942 17331 17336 1
18943 17338 17337 1
18944 17339 17338 un
18945 17330 17339 un
18946 17336 17337 1
18947 17341 17340 un
18948 17342 17341 un
18949 17343 17342 un
18950 17339 17340 un
18951 17338 17343 un
18952 17296 17344 1
18953 17344 17345 1
18954 17291 17346 1
18955 17295 17347 1
18956 17292 17348 1
18957 17301 17349 1
18958 17302 17350 1
18959 17308 17351 1
18960 17315 17352 1
18961 17314 17353 1
18962 17320 17354 1
18963 17317 17355 1
18964 17324 17356 2
18965 17321 17357 2
18966 17343 17358 1
18967 17342 17359 1
18968 17297 17360 1
18969 17297 17361 1
18970 17300 17362 1
18971 17300 17363 1
18972 17305 17364 1
18973 17313 17365 1
18974 17313 17366 1
18975 17314 17367 1
18976 17315 17368 1
18977 17316 17369 1
18978 17316 17370 1
18979 17325 17371 1
18980 17325 17372 1
18981 17326 17373 1
18982 17326 17374 1
18983 17333 17375 1
18984 17333 17376 1
18985 17334 17377 1
18986 17334 17378 1
18987 17335 17379 1
18988 17335 17380 1
18989 17336 17381 1
18990 17337 17382 1
18991 17337 17383 1
18992 17340 17384 1
18993 17341 17385 1
18994 17344 17386 1
18995 17344 17387 1
18996 17345 17388 1
18997 17345 17389 1
18998 17345 17390 1
18999 17346 17391 1
19000 17346 17392 1
19001 17346 17393 1
19002 17347 17394 1
19003 17347 17395 1
19004 17347 17396 1
19005 17348 17397 1
19006 17348 17398 1
19007 17348 17399 1
19008 17349 17400 1
19009 17349 17401 1
19010 17349 17402 1
19011 17350 17403 1
19012 17350 17404 1
19013 17350 17405 1
19014 17351 17406 1
19015 17352 17407 1
19016 17352 17408 1
19017 17352 17409 1
19018 17353 17410 1
19019 17353 17411 1
19020 17353 17412 1
19021 17354 17413 1
19022 17355 17414 1
19023 17358 17415 1
19024 17358 17416 1
19025 17358 17417 1
19026 17359 17418 1
19027 17359 17419 1
19028 17359 17420 1
19029 17423 17422 un
19030 17424 17423 un
19031 17425 17424 un
19032 17426 17425 un
19033 17421 17422 un
19034 17421 17426 un
19035 17428 17427 1
19036 17429 17428 un
19037 17430 17429 1
19038 17424 17427 1
19039 17423 17430 1
19040 17432 17431 un
19041 17433 17432 un
19042 17434 17433 un
19043 17429 17431 un
19044 17428 17434 un
19045 17436 17435 un
19046 17437 17436 un
19047 17438 17437 un
19048 17434 17435 un
19049 17433 17438 un
19050 17440 17439 1
19051 17441 17440 1
19052 17442 17441 un
19053 17437 17439 1
19054 17436 17442 un
19055 17444 17443 1
19056 17445 17444 un
19057 17446 17445 1
19058 17440 17443 1
19059 17439 17446 1
19060 17448 17447 un
19061 17449 17448 un
19062 17450 17449 un
19063 17442 17447 un
19064 17441 17450 un
19065 17452 17451 1
19066 17453 17452 un
19067 17454 17453 1
19068 17449 17451 1
19069 17448 17454 1
19070 17456 17455 1
19071 17457 17456 1
19072 17458 17457 un
19073 17453 17455 1
19074 17452 17458 un
19075 17460 17459 un
19076 17461 17460 un
19077 17462 17461 un
19078 17458 17459 un
19079 17457 17462 un
19080 17464 17463 1
19081 17465 17464 1
19082 17466 17465 1
19083 17462 17463 1
19084 17461 17466 1
19085 17468 17467 1
19086 17469 17468 un
19087 17460 17469 un
19088 17466 17467 1
19089 17471 17470 un
19090 17472 17471 un
19091 17473 17472 un
19092 17469 17470 un
19093 17468 17473 un
19094 17426 17474 1
19095 17474 17475 1
19096 17421 17476 1
19097 17425 17477 1
19098 17422 17478 1
19099 17431 17479 1
19100 17432 17480 1
19101 17438 17481 1
19102 17445 17482 1
19103 17444 17483 1
19104 17450 17484 1
19105 17447 17485 1
19106 17454 17486 2
19107 17451 17487 2
19108 17473 17488 1
19109 17472 17489 1
19110 17427 17490 1
19111 17427 17491 1
19112 17430 17492 1
19113 17430 17493 1
19114 17435 17494 1
19115 17443 17495 1
19116 17443 17496 1
19117 17444 17497 1
19118 17445 17498 1
19119 17446 17499 1
19120 17446 17500 1
19121 17455 17501 1
19122 17455 17502 1
19123 17456 17503 1
19124 17456 17504 1
19125 17463 17505 1
19126 17463 17506 1
19127 17464 17507 1
19128 17464 17508 1
19129 17465 17509 1
19130 17465 17510 1
19131 17466 17511 1
19132 17467 17512 1
19133 17467 17513 1
19134 17470 17514 1
19135 17471 17515 1
19136 17474 17516 1
19137 17474 17517 1
19138 17475 17518 1
19139 17475 17519 1
19140 17475 17520 1
19141 17476 17521 1
19142 17476 17522 1
19143 17476 17523 1
19144 17477 17524 1
19145 17477 17525 1
19146 17477 17526 1
19147 17478 17527 1
19148 17478 17528 1
19149 17478 17529 1
19150 17479 17530 1
19151 17479 17531 1
19152 17479 17532 1
19153 17480 17533 1
19154 17480 17534 1
19155 17480 17535 1
19156 17481 17536 1
19157 17482 17537 1
19158 17482 17538 1
19159 17482 17539 1
19160 17483 17540 1
19161 17483 17541 1
19162 17483 17542 1
19163 17484 17543 1
19164 17485 17544 1
19165 17488 17545 1
19166 17488 17546 1
19167 17488 17547 1
19168 17489 17548 1
19169 17489 17549 1
19170 17489 17550 1
19171 17553 17552 un
19172 17554 17553 un
19173 17555 17554 un
19174 17556 17555 un
19175 17551 17552 un
19176 17551 17556 un
19177 17558 17557 1
19178 17559 17558 un
19179 17560 17559 1
19180 17554 17557 1
19181 17553 17560 1
19182 17562 17561 un
19183 17563 17562 un
19184 17564 17563 un
19185 17559 17561 un
19186 17558 17564 un
19187 17566 17565 un
19188 17567 17566 un
19189 17568 17567 un
19190 17564 17565 un
19191 17563 17568 un
19192 17570 17569 1
19193 17571 17570 1
19194 17572 17571 un
19195 17567 17569 1
19196 17566 17572 un
19197 17574 17573 1
19198 17575 17574 un
19199 17576 17575 1
19200 17570 17573 1
19201 17569 17576 1
19202 17578 17577 un
19203 17579 17578 un
19204 17580 17579 un
19205 17572 17577 un
19206 17571 17580 un
19207 17582 17581 1
19208 17583 17582 un
19209 17584 17583 1
19210 17579 17581 1
19211 17578 17584 1
19212 17586 17585 1
19213 17587 17586 1
19214 17588 17587 un
19215 17583 17585 1
19216 17582 17588 un
19217 17590 17589 un
19218 17591 17590 un
19219 17592 17591 un
19220 17588 17589 un
19221 17587 17592 un
19222 17594 17593 1
19223 17595 17594 1
19224 17596 17595 1
19225 17592 17593 1
19226 17591 17596 1
19227 17598 17597 1
19228 17599 17598 un
19229 17590 17599 un
19230 17596 17597 1
19231 17601 17600 un
19232 17602 17601 un
19233 17603 17602 un
19234 17599 17600 un
19235 17598 17603 un
19236 17556 17604 1
19237 17604 17605 1
19238 17551 17606 1
19239 17555 17607 1
19240 17552 17608 1
19241 17561 17609 1
19242 17562 17610 1
19243 17568 17611 1
19244 17575 17612 1
19245 17574 17613 1
19246 17580 17614 1
19247 17577 17615 1
19248 17584 17616 2
19249 17581 17617 2
19250 17603 17618 1
19251 17602 17619 1
19252 17557 17620 1
19253 17557 17621 1
19254 17560 17622 1
19255 17560 17623 1
19256 17565 17624 1
19257 17573 17625 1
19258 17573 17626 1
19259 17574 17627 1
19260 17575 17628 1
19261 17576 17629 1
19262 17576 17630 1
19263 17585 17631 1
19264 17585 17632 1
19265 17586 17633 1
19266 17586 17634 1
19267 17593 17635 1
19268 17593 17636 1
19269 17594 17637 1
19270 17594 17638 1
19271 17595 17639 1
19272 17595 17640 1
19273 17596 17641 1
19274 17597 17642 1
19275 17597 17643 1
19276 17600 17644 1
19277 17601 17645 1
19278 17604 17646 1
19279 17604 17647 1
19280 17605 17648 1
19281 17605 17649 1
19282 17605 17650 1
19283 17606 17651 1
19284 17606 17652 1
19285 17606 17653 1
19286 17607 17654 1
19287 17607 17655 1
19288 17607 17656 1
19289 17608 17657 1
19290 17608 17658 1
19291 17608 17659 1
19292 17609 17660 1
19293 17609 17661 1
19294 17609 17662 1
19295 17610 17663 1
19296 17610 17664 1
19297 17610 17665 1
19298 17611 17666 1
19299 17612 17667 1
19300 17612 17668 1
19301 17612 17669 1
19302 17613 17670 1
19303 17613 17671 1
19304 17613 17672 1
19305 17614 17673 1
19306 17615 17674 1
19307 17618 17675 1
19308 17618 17676 1
19309 17618 17677 1
19310 17619 17678 1
19311 17619 17679 1
19312 17619 17680 1
19313 17683 17682 un
19314 17684 17683 un
19315 17685 17684 un
19316 17686 17685 un
19317 17681 17682 un
19318 17681 17686 un
19319 17688 17687 1
19320 17689 17688 un
19321 17690 17689 1
19322 17684 17687 1
19323 17683 17690 1
19324 17692 17691 un
19325 17693 17692 un
19326 17694 17693 un
19327 17689 17691 un
19328 17688 17694 un
19329 17696 17695 un
19330 17697 17696 un
19331 17698 17697 un
19332 17694 17695 un
19333 17693 17698 un
19334 17700 17699 1
19335 17701 17700 1
19336 17702 17701 un
19337 17697 17699 1
19338 17696 17702 un
19339 17704 17703 1
19340 17705 17704 un
19341 17706 17705 1
19342 17700 17703 1
19343 17699 17706 1
19344 17708 17707 un
19345 17709 17708 un
19346 17710 17709 un
19347 17702 17707 un
19348 17701 17710 un
19349 17712 17711 1
19350 17713 17712 un
19351 17714 17713 1
19352 17709 17711 1
19353 17708 17714 1
19354 17716 17715 1
19355 17717 17716 1
19356 17718 17717 un
19357 17713 17715 1
19358 17712 17718 un
19359 17720 17719 un
19360 17721 17720 un
19361 17722 17721 un
19362 17718 17719 un
19363 17717 17722 un
19364 17724 17723 1
19365 17725 17724 1
19366 17726 17725 1
19367 17722 17723 1
19368 17721 17726 1
19369 17728 17727 1
19370 17729 17728 un
19371 17720 17729 un
19372 17726 17727 1
19373 17731 17730 un
19374 17732 17731 un
19375 17733 17732 un
19376 17729 17730 un
19377 17728 17733 un
19378 17686 17734 1
19379 17734 17735 1
19380 17681 17736 1
19381 17685 17737 1
19382 17682 17738 1
19383 17691 17739 1
19384 17692 17740 1
19385 17698 17741 1
19386 17705 17742 1
19387 17704 17743 1
19388 17710 17744 1
19389 17707 17745 1
19390 17714 17746 2
19391 17711 17747 2
19392 17733 17748 1
19393 17732 17749 1
19394 17687 17750 1
19395 17687 17751 1
19396 17690 17752 1
19397 17690 17753 1
19398 17695 17754 1
19399 17703 17755 1
19400 17703 17756 1
19401 17704 17757 1
19402 17705 17758 1
19403 17706 17759 1
19404 17706 17760 1
19405 17715 17761 1
19406 17715 17762 1
19407 17716 17763 1
19408 17716 17764 1
19409 17723 17765 1
19410 17723 17766 1
19411 17724 17767 1
19412 17724 17768 1
19413 17725 17769 1
19414 17725 17770 1
19415 17726 17771 1
19416 17727 17772 1
19417 17727 17773 1
19418 17730 17774 1
19419 17731 17775 1
19420 17734 17776 1
19421 17734 17777 1
19422 17735 17778 1
19423 17735 17779 1
19424 17735 17780 1
19425 17736 17781 1
19426 17736 17782 1
19427 17736 17783 1
19428 17737 17784 1
19429 17737 17785 1
19430 17737 17786 1
19431 17738 17787 1
19432 17738 17788 1
19433 17738 17789 1
19434 17739 17790 1
19435 17739 17791 1
19436 17739 17792 1
19437 17740 17793 1
19438 17740 17794 1
19439 17740 17795 1
19440 17741 17796 1
19441 17742 17797 1
19442 17742 17798 1
19443 17742 17799 1
19444 17743 17800 1
19445 17743 17801 1
19446 17743 17802 1
19447 17744 17803 1
19448 17745 17804 1
19449 17748 17805 1
19450 17748 17806 1
19451 17748 17807 1
19452 17749 17808 1
19453 17749 17809 1
19454 17749 17810 1
19455 17813 17812 un
19456 17814 17813 un
19457 17815 17814 un
19458 17816 17815 un
19459 17811 17812 un
19460 17811 17816 un
19461 17818 17817 1
19462 17819 17818 un
19463 17820 17819 1
19464 17814 17817 1
19465 17813 17820 1
19466 17822 17821 un
19467 17823 17822 un
19468 17824 17823 un
19469 17819 17821 un
19470 17818 17824 un
19471 17826 17825 un
19472 17827 17826 un
19473 17828 17827 un
19474 17824 17825 un
19475 17823 17828 un
19476 17830 17829 1
19477 17831 17830 1
19478 17832 17831 un
19479 17827 17829 1
19480 17826 17832 un
19481 17834 17833 1
19482 17835 17834 un
19483 17836 17835 1
19484 17830 17833 1
19485 17829 17836 1
19486 17838 17837 un
19487 17839 17838 un
19488 17840 17839 un
19489 17832 17837 un
19490 17831 17840 un
19491 17842 17841 1
19492 17843 17842 un
19493 17844 17843 1
19494 17839 17841 1
19495 17838 17844 1
19496 17846 17845 1
19497 17847 17846 1
19498 17848 17847 un
19499 17843 17845 1
19500 17842 17848 un
19501 17850 17849 un
19502 17851 17850 un
19503 17852 17851 un
19504 17848 17849 un
19505 17847 17852 un
19506 17854 17853 1
19507 17855 17854 1
19508 17856 17855 1
19509 17852 17853 1
19510 17851 17856 1
19511 17858 17857 1
19512 17859 17858 un
19513 17850 17859 un
19514 17856 17857 1
19515 17861 17860 un
19516 17862 17861 un
19517 17863 17862 un
19518 17859 17860 un
19519 17858 17863 un
19520 17816 17864 1
19521 17864 17865 1
19522 17811 17866 1
19523 17815 17867 1
19524 17812 17868 1
19525 17821 17869 1
19526 17822 17870 1
19527 17828 17871 1
19528 17835 17872 1
19529 17834 17873 1
19530 17840 17874 1
19531 17837 17875 1
19532 17844 17876 2
19533 17841 17877 2
19534 17863 17878 1
19535 17862 17879 1
19536 17817 17880 1
19537 17817 17881 1
19538 17820 17882 1
19539 17820 17883 1
19540 17825 17884 1
19541 17833 17885 1
19542 17833 17886 1
19543 17834 17887 1
19544 17835 17888 1
19545 17836 17889 1
19546 17836 17890 1
19547 17845 17891 1
19548 17845 17892 1
19549 17846 17893 1
19550 17846 17894 1
19551 17853 17895 1
19552 17853 17896 1
19553 17854 17897 1
19554 17854 17898 1
19555 17855 17899 1
19556 17855 17900 1
19557 17856 17901 1
19558 17857 17902 1
19559 17857 17903 1
19560 17860 17904 1
19561 17861 17905 1
19562 17864 17906 1
19563 17864 17907 1
19564 17865 17908 1
19565 17865 17909 1
19566 17865 17910 1
19567 17866 17911 1
19568 17866 17912 1
19569 17866 17913 1
19570 17867 17914 1
19571 17867 17915 1
19572 17867 17916 1
19573 17868 17917 1
19574 17868 17918 1
19575 17868 17919 1
19576 17869 17920 1
19577 17869 17921 1
19578 17869 17922 1
19579 17870 17923 1
19580 17870 17924 1
19581 17870 17925 1
19582 17871 17926 1
19583 17872 17927 1
19584 17872 17928 1
19585 17872 17929 1
19586 17873 17930 1
19587 17873 17931 1
19588 17873 17932 1
19589 17874 17933 1
19590 17875 17934 1
19591 17878 17935 1
19592 17878 17936 1
19593 17878 17937 1
19594 17879 17938 1
19595 17879 17939 1
19596 17879 17940 1
19597 17943 17942 un
19598 17944 17943 un
19599 17945 17944 un
19600 17946 17945 un
19601 17941 17942 un
19602 17941 17946 un
19603 17948 17947 1
19604 17949 17948 un
19605 17950 17949 1
19606 17944 17947 1
19607 17943 17950 1
19608 17952 17951 un
19609 17953 17952 un
19610 17954 17953 un
19611 17949 17951 un
19612 17948 17954 un
19613 17956 17955 un
19614 17957 17956 un
19615 17958 17957 un
19616 17954 17955 un
19617 17953 17958 un
19618 17960 17959 1
19619 17961 17960 1
19620 17962 17961 un
19621 17957 17959 1
19622 17956 17962 un
19623 17964 17963 1
19624 17965 17964 un
19625 17966 17965 1
19626 17960 17963 1
19627 17959 17966 1
19628 17968 17967 un
19629 17969 17968 un
19630 17970 17969 un
19631 17962 17967 un
19632 17961 17970 un
19633 17972 17971 1
19634 17973 17972 un
19635 17974 17973 1
19636 17969 17971 1
19637 17968 17974 1
19638 17976 17975 1
19639 17977 17976 1
19640 17978 17977 un
19641 17973 17975 1
19642 17972 17978 un
19643 17980 17979 un
19644 17981 17980 un
19645 17982 17981 un
19646 17978 17979 un
19647 17977 17982 un
19648 17984 17983 1
19649 17985 17984 1
19650 17986 17985 1
19651 17982 17983 1
19652 17981 17986 1
19653 17988 17987 1
19654 17989 17988 un
19655 17980 17989 un
19656 17986 17987 1
19657 17991 17990 un
19658 17992 17991 un
19659 17993 17992 un
19660 17989 17990 un
19661 17988 17993 un
19662 17946 17994 1
19663 17994 17995 1
19664 17941 17996 1
19665 17945 17997 1
19666 17942 17998 1
19667 17951 17999 1
19668 17952 18000 1
19669 17958 18001 1
19670 17965 18002 1
19671 17964 18003 1
19672 17970 18004 1
19673 17967 18005 1
19674 17974 18006 2
19675 17971 18007 2
19676 17993 18008 1
19677 17992 18009 1
19678 17947 18010 1
19679 17947 18011 1
19680 17950 18012 1
19681 17950 18013 1
19682 17955 18014 1
19683 17963 18015 1
19684 17963 18016 1
19685 17964 18017 1
19686 17965 18018 1
19687 17966 18019 1
19688 17966 18020 1
19689 17975 18021 1
19690 17975 18022 1
19691 17976 18023 1
19692 17976 18024 1
19693 17983 18025 1
19694 17983 18026 1
19695 17984 18027 1
19696 17984 18028 1
19697 17985 18029 1
19698 17985 18030 1
19699 17986 18031 1
19700 17987 18032 1
19701 17987 18033 1
19702 17990 18034 1
19703 17991 18035 1
19704 17994 18036 1
19705 17994 18037 1
19706 17995 18038 1
19707 17995 18039 1
19708 17995 18040 1
19709 17996 18041 1
19710 17996 18042 1
19711 17996 18043 1
19712 17997 18044 1
19713 17997 18045 1
19714 17997 18046 1
19715 17998 18047 1
19716 17998 18048 1
19717 17998 18049 1
19718 17999 18050 1
19719 17999 18051 1
19720 17999 18052 1
19721 18000 18053 1
19722 18000 18054 1
19723 18000 18055 1
19724 18001 18056 1
19725 18002 18057 1
19726 18002 18058 1
19727 18002 18059 1
19728 18003 18060 1
19729 18003 18061 1
19730 18003 18062 1
19731 18004 18063 1
19732 18005 18064 1
19733 18008 18065 1
19734 18008 18066 1
19735 18008 18067 1
19736 18009 18068 1
19737 18009 18069 1
19738 18009 18070 1
19739 18073 18072 un
19740 18074 18073 un
19741 18075 18074 un
19742 18076 18075 un
19743 18071 18072 un
19744 18071 18076 un
19745 18078 18077 1
19746 18079 18078 un
19747 18080 18079 1
19748 18074 18077 1
19749 18073 18080 1
19750 18082 18081 un
19751 18083 18082 un
19752 18084 18083 un
19753 18079 18081 un
19754 18078 18084 un
19755 18086 18085 un
19756 18087 18086 un
19757 18088 18087 un
19758 18084 18085 un
19759 18083 18088 un
19760 18090 18089 1
19761 18091 18090 1
19762 18092 18091 un
19763 18087 18089 1
19764 18086 18092 un
19765 18094 18093 1
19766 18095 18094 un
19767 18096 18095 1
19768 18090 18093 1
19769 18089 18096 1
19770 18098 18097 un
19771 18099 18098 un
19772 18100 18099 un
19773 18092 18097 un
19774 18091 18100 un
19775 18102 18101 1
19776 18103 18102 un
19777 18104 18103 1
19778 18099 18101 1
19779 18098 18104 1
19780 18106 18105 1
19781 18107 18106 1
19782 18108 18107 un
19783 18103 18105 1
19784 18102 18108 un
19785 18110 18109 un
19786 18111 18110 un
19787 18112 18111 un
19788 18108 18109 un
19789 18107 18112 un
19790 18114 18113 1
19791 18115 18114 1
19792 18116 18115 1
19793 18112 18113 1
19794 18111 18116 1
19795 18118 18117 1
19796 18119 18118 un
19797 18110 18119 un
19798 18116 18117 1
19799 18121 18120 un
19800 18122 18121 un
19801 18123 18122 un
19802 18119 18120 un
19803 18118 18123 un
19804 18076 18124 1
19805 18124 18125 1
19806 18071 18126 1
19807 18075 18127 1
19808 18072 18128 1
19809 18081 18129 1
19810 18082 18130 1
19811 18088 18131 1
19812 18095 18132 1
19813 18094 18133 1
19814 18100 18134 1
19815 18097 18135 1
19816 18104 18136 2
19817 18101 18137 2
19818 18123 18138 1
19819 18122 18139 1
19820 18077 18140 1
19821 18077 18141 1
19822 18080 18142 1
19823 18080 18143 1
19824 18085 18144 1
19825 18093 18145 1
19826 18093 18146 1
19827 18094 18147 1
19828 18095 18148 1
19829 18096 18149 1
19830 18096 18150 1
19831 18105 18151 1
19832 18105 18152 1
19833 18106 18153 1
19834 18106 18154 1
19835 18113 18155 1
19836 18113 18156 1
19837 18114 18157 1
19838 18114 18158 1
19839 18115 18159 1
19840 18115 18160 1
19841 18116 18161 1
19842 18117 18162 1
19843 18117 18163 1
19844 18120 18164 1
19845 18121 18165 1
19846 18124 18166 1
19847 18124 18167 1
19848 18125 18168 1
19849 18125 18169 1
19850 18125 18170 1
19851 18126 18171 1
19852 18126 18172 1
19853 18126 18173 1
19854 18127 18174 1
19855 18127 18175 1
19856 18127 18176 1
19857 18128 18177 1
19858 18128 18178 1
19859 18128 18179 1
19860 18129 18180 1
19861 18129 18181 1
19862 18129 18182 1
19863 18130 18183 1
19864 18130 18184 1
19865 18130 18185 1
19866 18131 18186 1
19867 18132 18187 1
19868 18132 18188 1
19869 18132 18189 1
19870 18133 18190 1
19871 18133 18191 1
19872 18133 18192 1
19873 18134 18193 1
19874 18135 18194 1
19875 18138 18195 1
19876 18138 18196 1
19877 18138 18197 1
19878 18139 18198 1
19879 18139 18199 1
19880 18139 18200 1
19881 18203 18202 un
19882 18204 18203 un
19883 18205 18204 un
19884 18206 18205 un
19885 18201 18202 un
19886 18201 18206 un
19887 18208 18207 1
19888 18209 18208 un
19889 18210 18209 1
19890 18204 18207 1
19891 18203 18210 1
19892 18212 18211 un
19893 18213 18212 un
19894 18214 18213 un
19895 18209 18211 un
19896 18208 18214 un
19897 18216 18215 un
19898 18217 18216 un
19899 18218 18217 un
19900 18214 18215 un
19901 18213 18218 un
19902 18220 18219 1
19903 18221 18220 1
19904 18222 18221 un
19905 18217 18219 1
19906 18216 18222 un
19907 18224 18223 1
19908 18225 18224 un
19909 18226 18225 1
19910 18220 18223 1
19911 18219 18226 1
19912 18228 18227 un
19913 18229 18228 un
19914 18230 18229 un
19915 18222 18227 un
19916 18221 18230 un
19917 18232 18231 1
19918 18233 18232 un
19919 18234 18233 1
19920 18229 18231 1
19921 18228 18234 1
19922 18236 18235 1
19923 18237 18236 1
19924 18238 18237 un
19925 18233 18235 1
19926 18232 18238 un
19927 18240 18239 un
19928 18241 18240 un
19929 18242 18241 un
19930 18238 18239 un
19931 18237 18242 un
19932 18244 18243 1
19933 18245 18244 1
19934 18246 18245 1
19935 18242 18243 1
19936 18241 18246 1
19937 18248 18247 1
19938 18249 18248 un
19939 18240 18249 un
19940 18246 18247 1
19941 18251 18250 un
19942 18252 18251 un
19943 18253 18252 un
19944 18249 18250 un
19945 18248 18253 un
19946 18206 18254 1
19947 18254 18255 1
19948 18201 18256 1
19949 18205 18257 1
19950 18202 18258 1
19951 18211 18259 1
19952 18212 18260 1
19953 18218 18261 1
19954 18225 18262 1
19955 18224 18263 1
19956 18230 18264 1
19957 18227 18265 1
19958 18234 18266 2
19959 18231 18267 2
19960 18253 18268 1
19961 18252 18269 1
19962 18207 18270 1
19963 18207 18271 1
19964 18210 18272 1
19965 18210 18273 1
19966 18215 18274 1
19967 18223 18275 1
19968 18223 18276 1
19969 18224 18277 1
19970 18225 18278 1
19971 18226 18279 1
19972 18226 18280 1
19973 18235 18281 1
19974 18235 18282 1
19975 18236 18283 1
19976 18236 18284 1
19977 18243 18285 1
19978 18243 18286 1
19979 18244 18287 1
19980 18244 18288 1
19981 18245 18289 1
19982 18245 18290 1
19983 18246 18291 1
19984 18247 18292 1
19985 18247 18293 1
19986 18250 18294 1
19987 18251 18295 1
19988 18254 18296 1
19989 18254 18297 1
19990 18255 18298 1
19991 18255 18299 1
19992 18255 18300 1
19993 18256 18301 1
19994 18256 18302 1
19995 18256 18303 1
19996 18257 18304 1
19997 18257 18305 1
19998 18257 18306 1
19999 18258 18307 1
20000 18258 18308 1
20001 18258 18309 1
20002 18259 18310 1
20003 18259 18311 1
20004 18259 18312 1
20005 18260 18313 1
20006 18260 18314 1
20007 18260 18315 1
20008 18261 18316 1
20009 18262 18317 1
20010 18262 18318 1
20011 18262 18319 1
20012 18263 18320 1
20013 18263 18321 1
20014 18263 18322 1
20015 18264 18323 1
20016 18265 18324 1
20017 18268 18325 1
20018 18268 18326 1
20019 18268 18327 1
20020 18269 18328 1
20021 18269 18329 1
20022 18269 18330 1
20023 18333 18332 un
20024 18334 18333 un
20025 18335 18334 un
20026 18336 18335 un
20027 18331 18332 un
20028 18331 18336 un
20029 18338 18337 1
20030 18339 18338 un
20031 18340 18339 1
20032 18334 18337 1
20033 18333 18340 1
20034 18342 18341 un
20035 18343 18342 un
20036 18344 18343 un
20037 18339 18341 un
20038 18338 18344 un
20039 18346 18345 un
20040 18347 18346 un
20041 18348 18347 un
20042 18344 18345 un
20043 18343 18348 un
20044 18350 18349 1
20045 18351 18350 1
20046 18352 18351 un
20047 18347 18349 1
20048 18346 18352 un
20049 18354 18353 1
20050 18355 18354 un
20051 18356 18355 1
20052 18350 18353 1
20053 18349 18356 1
20054 18358 18357 un
20055 18359 18358 un
20056 18360 18359 un
20057 18352 18357 un
20058 18351 18360 un
20059 18362 18361 1
20060 18363 18362 un
20061 18364 18363 1
20062 18359 18361 1
20063 18358 18364 1
20064 18366 18365 1
20065 18367 18366 1
20066 18368 18367 un
20067 18363 18365 1
20068 18362 18368 un
20069 18370 18369 un
20070 18371 18370 un
20071 18372 18371 un
20072 18368 18369 un
20073 18367 18372 un
20074 18374 18373 1
20075 18375 18374 1
20076 18376 18375 1
20077 18372 18373 1
20078 18371 18376 1
20079 18378 18377 1
20080 18379 18378 un
20081 18370 18379 un
20082 18376 18377 1
20083 18381 18380 un
20084 18382 18381 un
20085 18383 18382 un
20086 18379 18380 un
20087 18378 18383 un
20088 18336 18384 1
20089 18384 18385 1
20090 18331 18386 1
20091 18335 18387 1
20092 18332 18388 1
20093 18341 18389 1
20094 18342 18390 1
20095 18348 18391 1
20096 18355 18392 1
20097 18354 18393 1
20098 18360 18394 1
20099 18357 18395 1
20100 18364 18396 2
20101 18361 18397 2
20102 18383 18398 1
20103 18382 18399 1
20104 18337 18400 1
20105 18337 18401 1
20106 18340 18402 1
20107 18340 18403 1
20108 18345 18404 1
20109 18353 18405 1
20110 18353 18406 1
20111 18354 18407 1
20112 18355 18408 1
20113 18356 18409 1
20114 18356 18410 1
20115 18365 18411 1
20116 18365 18412 1
20117 18366 18413 1
20118 18366 18414 1
20119 18373 18415 1
20120 18373 18416 1
20121 18374 18417 1
20122 18374 18418 1
20123 18375 18419 1
20124 18375 18420 1
20125 18376 18421 1
20126 18377 18422 1
20127 18377 18423 1
20128 18380 18424 1
20129 18381 18425 1
20130 18384 18426 1
20131 18384 18427 1
20132 18385 18428 1
20133 18385 18429 1
20134 18385 18430 1
20135 18386 18431 1
20136 18386 18432 1
20137 18386 18433 1
20138 18387 18434 1
20139 18387 18435 1
20140 18387 18436 1
20141 18388 18437 1
20142 18388 18438 1
20143 18388 18439 1
20144 18389 18440 1
20145 18389 18441 1
20146 18389 18442 1
20147 18390 18443 1
20148 18390 18444 1
20149 18390 18445 1
20150 18391 18446 1
20151 18392 18447 1
20152 18392 18448 1
20153 18392 18449 1
20154 18393 18450 1
20155 18393 18451 1
20156 18393 18452 1
20157 18394 18453 1
20158 18395 18454 1
20159 18398 18455 1
20160 18398 18456 1
20161 18398 18457 1
20162 18399 18458 1
20163 18399 18459 1
20164 18399 18460 1
20165 18463 18462 un
20166 18464 18463 un
20167 18465 18464 un
20168 18466 18465 un
20169 18461 18462 un
20170 18461 18466 un
20171 18468 18467 1
20172 18469 18468 un
20173 18470 18469 1
20174 18464 18467 1
20175 18463 18470 1
20176 18472 18471 un
20177 18473 18472 un
20178 18474 18473 un
20179 18469 18471 un
20180 18468 18474 un
20181 18476 18475 un
20182 18477 18476 un
20183 18478 18477 un
20184 18474 18475 un
20185 18473 18478 un
20186 18480 18479 1
20187 18481 18480 1
20188 18482 18481 un
20189 18477 18479 1
20190 18476 18482 un
20191 18484 18483 1
20192 18485 18484 un
20193 18486 18485 1
20194 18480 18483 1
20195 18479 18486 1
20196 18488 18487 un
20197 18489 18488 un
20198 18490 18489 un
20199 18482 18487 un
20200 18481 18490 un
20201 18492 18491 1
20202 18493 18492 un
20203 18494 18493 1
20204 18489 18491 1
20205 18488 18494 1
20206 18496 18495 1
20207 18497 18496 1
20208 18498 18497 un
20209 18493 18495 1
20210 18492 18498 un
20211 18500 18499 un
20212 18501 18500 un
20213 18502 18501 un
20214 18498 18499 un
20215 18497 18502 un
20216 18504 18503 1
20217 18505 18504 1
20218 18506 18505 1
20219 18502 18503 1
20220 18501 18506 1
20221 18508 18507 1
20222 18509 18508 un
20223 18500 18509 un
20224 18506 18507 1
20225 18511 18510 un
20226 18512 18511 un
20227 18513 18512 un
20228 18509 18510 un
20229 18508 18513 un
20230 18466 18514 1
20231 18514 18515 1
20232 18461 18516 1
20233 18465 18517 1
20234 18462 18518 1
20235 18471 18519 1
20236 18472 18520 1
20237 18478 18521 1
20238 18485 18522 1
20239 18484 18523 1
20240 18490 18524 1
20241 18487 18525 1
20242 18494 18526 2
20243 18491 18527 2
20244 18513 18528 1
20245 18512 18529 1
20246 18467 18530 1
20247 18467 18531 1
20248 18470 18532 1
20249 18470 18533 1
20250 18475 18534 1
20251 18483 18535 1
20252 18483 18536 1
20253 18484 18537 1
20254 18485 18538 1
20255 18486 18539 1
20256 18486 18540 1
20257 18495 18541 1
20258 18495 18542 1
20259 18496 18543 1
20260 18496 18544 1
20261 18503 18545 1
20262 18503 18546 1
20263 18504 18547 1
20264 18504 18548 1
20265 18505 18549 1
20266 18505 18550 1
20267 18506 18551 1
20268 18507 18552 1
20269 18507 18553 1
20270 18510 18554 1
20271 18511 18555 1
20272 18514 18556 1
20273 18514 18557 1
20274 18515 18558 1
20275 18515 18559 1
20276 18515 18560 1
20277 18516 18561 1
20278 18516 18562 1
20279 18516 18563 1
20280 18517 18564 1
20281 18517 18565 1
20282 18517 18566 1
20283 18518 18567 1
20284 18518 18568 1
20285 18518 18569 1
20286 18519 18570 1
20287 18519 18571 1
20288 18519 18572 1
20289 18520 18573 1
20290 18520 18574 1
20291 18520 18575 1
20292 18521 18576 1
20293 18522 18577 1
20294 18522 18578 1
20295 18522 18579 1
20296 18523 18580 1
20297 18523 18581 1
20298 18523 18582 1
20299 18524 18583 1
20300 18525 18584 1
20301 18528 18585 1
20302 18528 18586 1
20303 18528 18587 1
20304 18529 18588 1
20305 18529 18589 1
20306 18529 18590 1
20307 18593 18592 un
20308 18594 18593 un
20309 18595 18594 un
20310 18596 18595 un
20311 18591 18592 un
20312 18591 18596 un
20313 18598 18597 1
20314 18599 18598 un
20315 18600 18599 1
20316 18594 18597 1
20317 18593 18600 1
20318 18602 18601 un
20319 18603 18602 un
20320 18604 18603 un
20321 18599 18601 un
20322 18598 18604 un
20323 18606 18605 un
20324 18607 18606 un
20325 18608 18607 un
20326 18604 18605 un
20327 18603 18608 un
20328 18610 18609 1
20329 18611 18610 1
20330 18612 18611 un
20331 18607 18609 1
20332 18606 18612 un
20333 18614 18613 1
20334 18615 18614 un
20335 18616 18615 1
20336 18610 18613 1
20337 18609 18616 1
20338 18618 18617 un
20339 18619 18618 un
20340 18620 18619 un
20341 18612 18617 un
20342 18611 18620 un
20343 18622 18621 1
20344 18623 18622 un
20345 18624 18623 1
20346 18619 18621 1
20347 18618 18624 1
20348 18626 18625 1
20349 18627 18626 1
20350 18628 18627 un
20351 18623 18625 1
20352 18622 18628 un
20353 18630 18629 un
20354 18631 18630 un
20355 18632 18631 un
20356 18628 18629 un
20357 18627 18632 un
20358 18634 18633 1
20359 18635 18634 1
20360 18636 18635 1
20361 18632 18633 1
20362 18631 18636 1
20363 18638 18637 1
20364 18639 18638 un
20365 18630 18639 un
20366 18636 18637 1
20367 18641 18640 un
20368 18642 18641 un
20369 18643 18642 un
20370 18639 18640 un
20371 18638 18643 un
20372 18596 18644 1
20373 18644 18645 1
20374 18591 18646 1
20375 18595 18647 1
20376 18592 18648 1
20377 18601 18649 1
20378 18602 18650 1
20379 18608 18651 1
20380 18615 18652 1
20381 18614 18653 1
20382 18620 18654 1
20383 18617 18655 1
20384 18624 18656 2
20385 18621 18657 2
20386 18643 18658 1
20387 18642 18659 1
20388 18597 18660 1
20389 18597 18661 1
20390 18600 18662 1
20391 18600 18663 1
20392 18605 18664 1
20393 18613 18665 1
20394 18613 18666 1
20395 18614 18667 1
20396 18615 18668 1
20397 18616 18669 1
20398 18616 18670 1
20399 18625 18671 1
20400 18625 18672 1
20401 18626 18673 1
20402 18626 18674 1
20403 18633 18675 1
20404 18633 18676 1
20405 18634 18677 1
20406 18634 18678 1
20407 18635 18679 1
20408 18635 18680 1
20409 18636 18681 1
20410 18637 18682 1
20411 18637 18683 1
20412 18640 18684 1
20413 18641 18685 1
20414 18644 18686 1
20415 18644 18687 1
20416 18645 18688 1
20417 18645 18689 1
20418 18645 18690 1
20419 18646 18691 1
20420 18646 18692 1
20421 18646 18693 1
20422 18647 18694 1
20423 18647 18695 1
20424 18647 18696 1
20425 18648 18697 1
20426 18648 18698 1
20427 18648 18699 1
20428 18649 18700 1
20429 18649 18701 1
20430 18649 18702 1
20431 18650 18703 1
20432 18650 18704 1
20433 18650 18705 1
20434 18651 18706 1
20435 18652 18707 1
20436 18652 18708 1
20437 18652 18709 1
20438 18653 18710 1
20439 18653 18711 1
20440 18653 18712 1
20441 18654 18713 1
20442 18655 18714 1
20443 18658 18715 1
20444 18658 18716 1
20445 18658 18717 1
20446 18659 18718 1
20447 18659 18719 1
20448 18659 18720 1
20449 18723 18722 un
20450 18724 18723 un
20451 18725 18724 un
20452 18726 18725 un
20453 18721 18722 un
20454 18721 18726 un
20455 18728 18727 1
20456 18729 18728 un
20457 18730 18729 1
20458 18724 18727 1
20459 18723 18730 1
20460 18732 18731 un
20461 18733 18732 un
20462 18734 18733 un
20463 18729 18731 un
20464 18728 18734 un
20465 18736 18735 un
20466 18737 18736 un
20467 18738 18737 un
20468 18734 18735 un
20469 18733 18738 un
20470 18740 18739 1
20471 18741 18740 1
20472 18742 18741 un
20473 18737 18739 1
20474 18736 18742 un
20475 18744 18743 1
20476 18745 18744 un
20477 18746 18745 1
20478 18740 18743 1
20479 18739 18746 1
20480 18748 18747 un
20481 18749 18748 un
20482 18750 18749 un
20483 18742 18747 un
20484 18741 18750 un
20485 18752 18751 1
20486 18753 18752 un
20487 18754 18753 1
20488 18749 18751 1
20489 18748 18754 1
20490 18756 18755 1
20491 18757 18756 1
20492 18758 18757 un
20493 18753 18755 1
20494 18752 18758 un
20495 18760 18759 un
20496 18761 18760 un
20497 18762 18761 un
20498 18758 18759 un
20499 18757 18762 un
20500 18764 18763 1
20501 18765 18764 1
20502 18766 18765 1
20503 18762 18763 1
20504 18761 18766 1
20505 18768 18767 1
20506 18769 18768 un
20507 18760 18769 un
20508 18766 18767 1
20509 18771 18770 un
20510 18772 18771 un
20511 18773 18772 un
20512 18769 18770 un
20513 18768 18773 un
20514 18726 18774 1
20515 18774 18775 1
20516 18721 18776 1
20517 18725 18777 1
20518 18722 18778 1
20519 18731 18779 1
20520 18732 18780 1
20521 18738 18781 1
20522 18745 18782 1
20523 18744 18783 1
20524 18750 18784 1
20525 18747 18785 1
20526 18754 18786 2
20527 18751 18787 2
20528 18773 18788 1
20529 18772 18789 1
20530 18727 18790 1
20531 18727 18791 1
20532 18730 18792 1
20533 18730 18793 1
20534 18735 18794 1
20535 18743 18795 1
20536 18743 18796 1
20537 18744 18797 1
20538 18745 18798 1
20539 18746 18799 1
20540 18746 18800 1
20541 18755 18801 1
20542 18755 18802 1
20543 18756 18803 1
20544 18756 18804 1
20545 18763 18805 1
20546 18763 18806 1
20547 18764 18807 1
20548 18764 18808 1
20549 18765 18809 1
20550 18765 18810 1
20551 18766 18811 1
20552 18767 18812 1
20553 18767 18813 1
20554 18770 18814 1
20555 18771 18815 1
20556 18774 18816 1
20557 18774 18817 1
20558 18775 18818 1
20559 18775 18819 1
20560 18775 18820 1
20561 18776 18821 1
20562 18776 18822 1
20563 18776 18823 1
20564 18777 18824 1
20565 18777 18825 1
20566 18777 18826 1
20567 18778 18827 1
20568 18778 18828 1
20569 18778 18829 1
20570 18779 18830 1
20571 18779 18831 1
20572 18779 18832 1
20573 18780 18833 1
20574 18780 18834 1
20575 18780 18835 1
20576 18781 18836 1
20577 18782 18837 1
20578 18782 18838 1
20579 18782 18839 1
20580 18783 18840 1
20581 18783 18841 1
20582 18783 18842 1
20583 18784 18843 1
20584 18785 18844 1
20585 18788 18845 1
20586 18788 18846 1
20587 18788 18847 1
20588 18789 18848 1
20589 18789 18849 1
20590 18789 18850 1
20591 18853 18852 un
20592 18854 18853 un
20593 18855 18854 un
20594 18856 18855 un
20595 18851 18852 un
20596 18851 18856 un
20597 18858 18857 1
20598 18859 18858 un
20599 18860 18859 1
20600 18854 18857 1
20601 18853 18860 1
20602 18862 18861 un
20603 18863 18862 un
20604 18864 18863 un
20605 18859 18861 un
20606 18858 18864 un
20607 18866 18865 un
20608 18867 18866 un
20609 18868 18867 un
20610 18864 18865 un
20611 18863 18868 un
20612 18870 18869 1
20613 18871 18870 1
20614 18872 18871 un
20615 18867 18869 1
20616 18866 18872 un
20617 18874 18873 1
20618 18875 18874 un
20619 18876 18875 1
20620 18870 18873 1
20621 18869 18876 1
20622 18878 18877 un
20623 18879 18878 un
20624 18880 18879 un
20625 18872 18877 un
20626 18871 18880 un
20627 18882 18881 1
20628 18883 18882 un
20629 18884 18883 1
20630 18879 18881 1
20631 18878 18884 1
20632 18886 18885 1
20633 18887 18886 1
20634 18888 18887 un
20635 18883 18885 1
20636 18882 18888 un
20637 18890 18889 un
20638 18891 18890 un
20639 18892 18891 un
20640 18888 18889 un
20641 18887 18892 un
20642 18894 18893 1
20643 18895 18894 1
20644 18896 18895 1
20645 18892 18893 1
20646 18891 18896 1
20647 18898 18897 1
20648 18899 18898 un
20649 18890 18899 un
20650 18896 18897 1
20651 18901 18900 un
20652 18902 18901 un
20653 18903 18902 un
20654 18899 18900 un
20655 18898 18903 un
20656 18856 18904 1
20657 18904 18905 1
20658 18851 18906 1
20659 18855 18907 1
20660 18852 18908 1
20661 18861 18909 1
20662 18862 18910 1
20663 18868 18911 1
20664 18875 18912 1
20665 18874 18913 1
20666 18880 18914 1
20667 18877 18915 1
20668 18884 18916 2
20669 18881 18917 2
20670 18903 18918 1
20671 18902 18919 1
20672 18857 18920 1
20673 18857 18921 1
20674 18860 18922 1
20675 18860 18923 1
20676 18865 18924 1
20677 18873 18925 1
20678 18873 18926 1
20679 18874 18927 1
20680 18875 18928 1
20681 18876 18929 1
20682 18876 18930 1
20683 18885 18931 1
20684 18885 18932 1
20685 18886 18933 1
20686 18886 18934 1
20687 18893 18935 1
20688 18893 18936 1
20689 18894 18937 1
20690 18894 18938 1
20691 18895 18939 1
20692 18895 18940 1
20693 18896 18941 1
20694 18897 18942 1
20695 18897 18943 1
20696 18900 18944 1
20697 18901 18945 1
20698 18904 18946 1
20699 18904 18947 1
20700 18905 18948 1
20701 18905 18949 1
20702 18905 18950 1
20703 18906 18951 1
20704 18906 18952 1
20705 18906 18953 1
20706 18907 18954 1
20707 18907 18955 1
20708 18907 18956 1
20709 18908 18957 1
20710 18908 18958 1
20711 18908 18959 1
20712 18909 18960 1
20713 18909 18961 1
20714 18909 18962 1
20715 18910 18963 1
20716 18910 18964 1
20717 18910 18965 1
20718 18911 18966 1
20719 18912 18967 1
20720 18912 18968 1
20721 18912 18969 1
20722 18913 18970 1
20723 18913 18971 1
20724 18913 18972 1
20725 18914 18973 1
20726 18915 18974 1
20727 18918 18975 1
20728 18918 18976 1
20729 18918 18977 1
20730 18919 18978 1
20731 18919 18979 1
20732 18919 18980 1
20733 18983 18982 un
20734 18984 18983 un
20735 18985 18984 un
20736 18986 18985 un
20737 18981 18982 un
20738 18981 18986 un
20739 18988 18987 1
20740 18989 18988 un
20741 18990 18989 1
20742 18984 18987 1
20743 18983 18990 1
20744 18992 18991 un
20745 18993 18992 un
20746 18994 18993 un
20747 18989 18991 un
20748 18988 18994 un
20749 18996 18995 un
20750 18997 18996 un
20751 18998 18997 un
20752 18994 18995 un
20753 18993 18998 un
20754 19000 18999 1
20755 19001 19000 1
20756 19002 19001 un
20757 18997 18999 1
20758 18996 19002 un
20759 19004 19003 1
20760 19005 19004 un
20761 19006 19005 1
20762 19000 19003 1
20763 18999 19006 1
20764 19008 19007 un
20765 19009 19008 un
20766 19010 19009 un
20767 19002 19007 un
20768 19001 19010 un
20769 19012 19011 1
20770 19013 19012 un
20771 19014 19013 1
20772 19009 19011 1
20773 19008 19014 1
20774 19016 19015 1
20775 19017 19016 1
20776 19018 19017 un
20777 19013 19015 1
20778 19012 19018 un
20779 19020 19019 un
20780 19021 19020 un
20781 19022 19021 un
20782 19018 19019 un
20783 19017 19022 un
20784 19024 19023 1
20785 19025 19024 1
20786 19026 19025 1
20787 19022 19023 1
20788 19021 19026 1
20789 19028 19027 1
20790 19029 19028 un
20791 19020 19029 un
20792 19026 19027 1
20793 19031 19030 un
20794 19032 19031 un
20795 19033 19032 un
20796 19029 19030 un
20797 19028 19033 un
20798 18986 19034 1
20799 19034 19035 1
20800 18981 19036 1
20801 18985 19037 1
20802 18982 19038 1
20803 18991 19039 1
20804 18992 19040 1
20805 18998 19041 1
20806 19005 19042 1
20807 19004 19043 1
20808 19010 19044 1
20809 19007 19045 1
20810 19014 19046 2
20811 19011 19047 2
20812 19033 19048 1
20813 19032 19049 1
20814 18987 19050 1
20815 18987 19051 1
20816 18990 19052 1
20817 18990 19053 1
20818 18995 19054 1
20819 19003 19055 1
20820 19003 19056 1
20821 19004 19057 1
20822 19005 19058 1
20823 19006 19059 1
20824 19006 19060 1
20825 19015 19061 1
20826 19015 19062 1
20827 19016 19063 1
20828 19016 19064 1
20829 19023 19065 1
20830 19023 19066 1
20831 19024 19067 1
20832 19024 19068 1
20833 19025 19069 1
20834 19025 19070 1
20835 19026 19071 1
20836 19027 19072 1
20837 19027 19073 1
20838 19030 19074 1
20839 19031 19075 1
20840 19034 19076 1
20841 19034 19077 1
20842 19035 19078 1
20843 19035 19079 1
20844 19035 19080 1
20845 19036 19081 1
20846 19036 19082 1
20847 19036 19083 1
20848 19037 19084 1
20849 19037 19085 1
20850 19037 19086 1
20851 19038 19087 1
20852 19038 19088 1
20853 19038 19089 1
20854 19039 19090 1
20855 19039 19091 1
20856 19039 19092 1
20857 19040 19093 1
20858 19040 19094 1
20859 19040 19095 1
20860 19041 19096 1
20861 19042 19097 1
20862 19042 19098 1
20863 19042 19099 1
20864 19043 19100 1
20865 19043 19101 1
20866 19043 19102 1
20867 19044 19103 1
20868 19045 19104 1
20869 19048 19105 1
20870 19048 19106 1
20871 19048 19107 1
20872 19049 19108 1
20873 19049 19109 1
20874 19049 19110 1
20875 19113 19112 un
20876 19114 19113 un
20877 19115 19114 un
20878 19116 19115 un
20879 19111 19112 un
20880 19111 19116 un
20881 19118 19117 1
20882 19119 19118 un
20883 19120 19119 1
20884 19114 19117 1
20885 19113 19120 1
20886 19122 19121 un
20887 19123 19122 un
20888 19124 19123 un
20889 19119 19121 un
20890 19118 19124 un
20891 19126 19125 un
20892 19127 19126 un
20893 19128 19127 un
20894 19124 19125 un
20895 19123 19128 un
20896 19130 19129 1
20897 19131 19130 1
20898 19132 19131 un
20899 19127 19129 1
20900 19126 19132 un
20901 19134 19133 1
20902 19135 19134 un
20903 19136 19135 1
20904 19130 19133 1
20905 19129 19136 1
20906 19138 19137 un
20907 19139 19138 un
20908 19140 19139 un
20909 19132 19137 un
20910 19131 19140 un
20911 19142 19141 1
20912 19143 19142 un
20913 19144 19143 1
20914 19139 19141 1
20915 19138 19144 1
20916 19146 19145 1
20917 19147 19146 1
20918 19148 19147 un
20919 19143 19145 1
20920 19142 19148 un
20921 19150 19149 un
20922 19151 19150 un
20923 19152 19151 un
20924 19148 19149 un
20925 19147 19152 un
20926 19154 19153 1
20927 19155 19154 1
20928 19156 19155 1
20929 19152 19153 1
20930 19151 19156 1
20931 19158 19157 1
20932 19159 19158 un
20933 19150 19159 un
20934 19156 19157 1
20935 19161 19160 un
20936 19162 19161 un
20937 19163 19162 un
20938 19159 19160 un
20939 19158 19163 un
20940 19116 19164 1
20941 19164 19165 1
20942 19111 19166 1
20943 19115 19167 1
20944 19112 19168 1
20945 19121 19169 1
20946 19122 19170 1
20947 19128 19171 1
20948 19135 19172 1
20949 19134 19173 1
20950 19140 19174 1
20951 19137 19175 1
20952 19144 19176 2
20953 19141 19177 2
20954 19163 19178 1
20955 19162 19179 1
20956 19117 19180 1
20957 19117 19181 1
20958 19120 19182 1
20959 19120 19183 1
20960 19125 19184 1
20961 19133 19185 1
20962 19133 19186 1
20963 19134 19187 1
20964 19135 19188 1
20965 19136 19189 1
20966 19136 19190 1
20967 19145 19191 1
20968 19145 19192 1
20969 19146 19193 1
20970 19146 19194 1
20971 19153 19195 1
20972 19153 19196 1
20973 19154 19197 1
20974 19154 19198 1
20975 19155 19199 1
20976 19155 19200 1
20977 19156 19201 1
20978 19157 19202 1
20979 19157 19203 1
20980 19160 19204 1
20981 19161 19205 1
20982 19164 19206 1
20983 19164 19207 1
20984 19165 19208 1
20985 19165 19209 1
20986 19165 19210 1
20987 19166 19211 1
20988 19166 19212 1
20989 19166 19213 1
20990 19167 19214 1
20991 19167 19215 1
20992 19167 19216 1
20993 19168 19217 1
20994 19168 19218 1
20995 19168 19219 1
20996 19169 19220 1
20997 19169 19221 1
20998 19169 19222 1
20999 19170 19223 1
21000 19170 19224 1
21001 19170 19225 1
21002 19171 19226 1
21003 19172 19227 1
21004 19172 19228 1
21005 19172 19229 1
21006 19173 19230 1
21007 19173 19231 1
21008 19173 19232 1
21009 19174 19233 1
21010 19175 19234 1
21011 19178 19235 1
21012 19178 19236 1
21013 19178 19237 1
21014 19179 19238 1
21015 19179 19239 1
21016 19179 19240 1
21017 19243 19242 un
21018 19244 19243 un
21019 19245 19244 un
21020 19246 19245 un
21021 19241 19242 un
21022 19241 19246 un
21023 19248 19247 1
21024 19249 19248 un
21025 19250 19249 1
21026 19244 19247 1
21027 19243 19250 1
21028 19252 19251 un
21029 19253 19252 un
21030 19254 19253 un
21031 19249 19251 un
21032 19248 19254 un
21033 19256 19255 un
21034 19257 19256 un
21035 19258 19257 un
21036 19254 19255 un
21037 19253 19258 un
21038 19260 19259 1
21039 19261 19260 1
21040 19262 19261 un
21041 19257 19259 1
21042 19256 19262 un
21043 19264 19263 1
21044 19265 19264 un
21045 19266 19265 1
21046 19260 19263 1
21047 19259 19266 1
21048 19268 19267 un
21049 19269 19268 un
21050 19270 19269 un
21051 19262 19267 un
21052 19261 19270 un
21053 19272 19271 1
21054 19273 19272 un
21055 19274 19273 1
21056 19269 19271 1
21057 19268 19274 1
21058 19276 19275 1
21059 19277 19276 1
21060 19278 19277 un
21061 19273 19275 1
21062 19272 19278 un
21063 19280 19279 un
21064 19281 19280 un
21065 19282 19281 un
21066 19278 19279 un
21067 19277 19282 un
21068 19284 19283 1
21069 19285 19284 1
21070 19286 19285 1
21071 19282 19283 1
21072 19281 19286 1
21073 19288 19287 1
21074 19289 19288 un
21075 19280 19289 un
21076 19286 19287 1
21077 19291 19290 un
21078 19292 19291 un
21079 19293 19292 un
21080 19289 19290 un
21081 19288 19293 un
21082 19246 19294 1
21083 19294 19295 1
21084 19241 19296 1
21085 19245 19297 1
21086 19242 19298 1
21087 19251 19299 1
21088 19252 19300 1
21089 19258 19301 1
21090 19265 19302 1
21091 19264 19303 1
21092 19270 19304 1
21093 19267 19305 1
21094 19274 19306 2
21095 19271 19307 2
21096 19293 19308 1
21097 19292 19309 1
21098 19247 19310 1
21099 19247 19311 1
21100 19250 19312 1
21101 19250 19313 1
21102 19255 19314 1
21103 19263 19315 1
21104 19263 19316 1
21105 19264 19317 1
21106 19265 19318 1
21107 19266 19319 1
21108 19266 19320 1
21109 19275 19321 1
21110 19275 19322 1
21111 19276 19323 1
21112 19276 19324 1
21113 19283 19325 1
21114 19283 19326 1
21115 19284 19327 1
21116 19284 19328 1
21117 19285 19329 1
21118 19285 19330 1
21119 19286 19331 1
21120 19287 19332 1
21121 19287 19333 1
21122 19290 19334 1
21123 19291 19335 1
21124 19294 19336 1
21125 19294 19337 1
21126 19295 19338 1
21127 19295 19339 1
21128 19295 19340 1
21129 19296 19341 1
21130 19296 19342 1
21131 19296 19343 1
21132 19297 19344 1
21133 19297 19345 1
21134 19297 19346 1
21135 19298 19347 1
21136 19298 19348 1
21137 19298 19349 1
21138 19299 19350 1
21139 19299 19351 1
21140 19299 19352 1
21141 19300 19353 1
21142 19300 19354 1
21143 19300 19355 1
21144 19301 19356 1
21145 19302 19357 1
21146 19302 19358 1
21147 19302 19359 1
21148 19303 19360 1
21149 19303 19361 1
21150 19303 19362 1
21151 19304 19363 1
21152 19305 19364 1
21153 19308 19365 1
21154 19308 19366 1
21155 19308 19367 1
21156 19309 19368 1
21157 19309 19369 1
21158 19309 19370 1
21159 19373 19372 un
21160 19374 19373 un
21161 19375 19374 un
21162 19376 19375 un
21163 19371 19372 un
21164 19371 19376 un
21165 19378 19377 1
21166 19379 19378 un
21167 19380 19379 1
21168 19374 19377 1
21169 19373 19380 1
21170 19382 19381 un
21171 19383 19382 un
21172 19384 19383 un
21173 19379 19381 un
21174 19378 19384 un
21175 19386 19385 un
21176 19387 19386 un
21177 19388 19387 un
21178 19384 19385 un
21179 19383 19388 un
21180 19390 19389 1
21181 19391 19390 1
21182 19392 19391 un
21183 19387 19389 1
21184 19386 19392 un
21185 19394 19393 1
21186 19395 19394 un
21187 19396 19395 1
21188 19390 19393 1
21189 19389 19396 1
21190 19398 19397 un
21191 19399 19398 un
21192 19400 19399 un
21193 19392 19397 un
21194 19391 19400 un
21195 19402 19401 1
21196 19403 19402 un
21197 19404 19403 1
21198 19399 19401 1
21199 19398 19404 1
21200 19406 19405 1
21201 19407 19406 1
21202 19408 19407 un
21203 19403 19405 1
21204 19402 19408 un
21205 19410 19409 un
21206 19411 19410 un
21207 19412 19411 un
21208 19408 19409 un
21209 19407 19412 un
21210 19414 19413 1
21211 19415 19414 1
21212 19416 19415 1
21213 19412 19413 1
21214 19411 19416 1
21215 19418 19417 1
21216 19419 19418 un
21217 19410 19419 un
21218 19416 19417 1
21219 19421 19420 un
21220 19422 19421 un
21221 19423 19422 un
21222 19419 19420 un
21223 19418 19423 un
21224 19376 19424 1
21225 19424 19425 1
21226 19371 19426 1
21227 19375 19427 1
21228 19372 19428 1
21229 19381 19429 1
21230 19382 19430 1
21231 19388 19431 1
21232 19395 19432 1
21233 19394 19433 1
21234 19400 19434 1
21235 19397 19435 1
21236 19404 19436 2
21237 19401 19437 2
21238 19423 19438 1
21239 19422 19439 1
21240 19377 19440 1
21241 19377 19441 1
21242 19380 19442 1
21243 19380 19443 1
21244 19385 19444 1
21245 19393 19445 1
21246 19393 19446 1
21247 19394 19447 1
21248 19395 19448 1
21249 19396 19449 1
21250 19396 19450 1
21251 19405 19451 1
21252 19405 19452 1
21253 19406 19453 1
21254 19406 19454 1
21255 19413 19455 1
21256 19413 19456 1
21257 19414 19457 1
21258 19414 19458 1
21259 19415 19459 1
21260 19415 19460 1
21261 19416 19461 1
21262 19417 19462 1
21263 19417 19463 1
21264 19420 19464 1
21265 19421 19465 1
21266 19424 19466 1
21267 19424 19467 1
21268 19425 19468 1
21269 19425 19469 1
21270 19425 19470 1
21271 19426 19471 1
21272 19426 19472 1
21273 19426 19473 1
21274 19427 19474 1
21275 19427 19475 1
21276 19427 19476 1
21277 19428 19477 1
21278 19428 19478 1
21279 19428 19479 1
21280 19429 19480 1
21281 19429 19481 1
21282 19429 19482 1
21283 19430 19483 1
21284 19430 19484 1
21285 19430 19485 1
21286 19431 19486 1
21287 19432 19487 1
21288 19432 19488 1
21289 19432 19489 1
21290 19433 19490 1
21291 19433 19491 1
21292 19433 19492 1
21293 19434 19493 1
21294 19435 19494 1
21295 19438 19495 1
21296 19438 19496 1
21297 19438 19497 1
21298 19439 19498 1
21299 19439 19499 1
21300 19439 19500 1
21301 19503 19502 un
21302 19504 19503 un
21303 19505 19504 un
21304 19506 19505 un
21305 19501 19502 un
21306 19501 19506 un
21307 19508 19507 1
21308 19509 19508 un
21309 19510 19509 1
21310 19504 19507 1
21311 19503 19510 1
21312 19512 19511 un
21313 19513 19512 un
21314 19514 19513 un
21315 19509 19511 un
21316 19508 19514 un
21317 19516 19515 un
21318 19517 19516 un
21319 19518 19517 un
21320 19514 19515 un
21321 19513 19518 un
21322 19520 19519 1
21323 19521 19520 1
21324 19522 19521 un
21325 19517 19519 1
21326 19516 19522 un
21327 19524 19523 1
21328 19525 19524 un
21329 19526 19525 1
21330 19520 19523 1
21331 19519 19526 1
21332 19528 19527 un
21333 19529 19528 un
21334 19530 19529 un
21335 19522 19527 un
21336 19521 19530 un
21337 19532 19531 1
21338 19533 19532 un
21339 19534 19533 1
21340 19529 19531 1
21341 19528 19534 1
21342 19536 19535 1
21343 19537 19536 1
21344 19538 19537 un
21345 19533 19535 1
21346 19532 19538 un
21347 19540 19539 un
21348 19541 19540 un
21349 19542 19541 un
21350 19538 19539 un
21351 19537 19542 un
21352 19544 19543 1
21353 19545 19544 1
21354 19546 19545 1
21355 19542 19543 1
21356 19541 19546 1
21357 19548 19547 1
21358 19549 19548 un
21359 19540 19549 un
21360 19546 19547 1
21361 19551 19550 un
21362 19552 19551 un
21363 19553 19552 un
21364 19549 19550 un
21365 19548 19553 un
21366 19506 19554 1
21367 19554 19555 1
21368 19501 19556 1
21369 19505 19557 1
21370 19502 19558 1
21371 19511 19559 1
21372 19512 19560 1
21373 19518 19561 1
21374 19525 19562 1
21375 19524 19563 1
21376 19530 19564 1
21377 19527 19565 1
21378 19534 19566 2
21379 19531 19567 2
21380 19553 19568 1
21381 19552 19569 1
21382 19507 19570 1
21383 19507 19571 1
21384 19510 19572 1
21385 19510 19573 1
21386 19515 19574 1
21387 19523 19575 1
21388 19523 19576 1
21389 19524 19577 1
21390 19525 19578 1
21391 19526 19579 1
21392 19526 19580 1
21393 19535 19581 1
21394 19535 19582 1
21395 19536 19583 1
21396 19536 19584 1
21397 19543 19585 1
21398 19543 19586 1
21399 19544 19587 1
21400 19544 19588 1
21401 19545 19589 1
21402 19545 19590 1
21403 19546 19591 1
21404 19547 19592 1
21405 19547 19593 1
21406 19550 19594 1
21407 19551 19595 1
21408 19554 19596 1
21409 19554 19597 1
21410 19555 19598 1
21411 19555 19599 1
21412 19555 19600 1
21413 19556 19601 1
21414 19556 19602 1
21415 19556 19603 1
21416 19557 19604 1
21417 19557 19605 1
21418 19557 19606 1
21419 19558 19607 1
21420 19558 19608 1
21421 19558 19609 1
21422 19559 19610 1
21423 19559 19611 1
21424 19559 19612 1
21425 19560 19613 1
21426 19560 19614 1
21427 19560 19615 1
21428 19561 19616 1
21429 19562 19617 1
21430 19562 19618 1
21431 19562 19619 1
21432 19563 19620 1
21433 19563 19621 1
21434 19563 19622 1
21435 19564 19623 1
21436 19565 19624 1
21437 19568 19625 1
21438 19568 19626 1
21439 19568 19627 1
21440 19569 19628 1
21441 19569 19629 1
21442 19569 19630 1
21443 19633 19632 un
21444 19634 19633 un
21445 19635 19634 un
21446 19636 19635 un
21447 19631 19632 un
21448 19631 19636 un
21449 19638 19637 1
21450 19639 19638 un
21451 19640 19639 1
21452 19634 19637 1
21453 19633 19640 1
21454 19642 19641 un
21455 19643 19642 un
21456 19644 19643 un
21457 19639 19641 un
21458 19638 19644 un
21459 19646 19645 un
21460 19647 19646 un
21461 19648 19647 un
21462 19644 19645 un
21463 19643 19648 un
21464 19650 19649 1
21465 19651 19650 1
21466 19652 19651 un
21467 19647 19649 1
21468 19646 19652 un
21469 19654 19653 1
21470 19655 19654 un
21471 19656 19655 1
21472 19650 19653 1
21473 19649 19656 1
21474 19658 19657 un
21475 19659 19658 un
21476 19660 19659 un
21477 19652 19657 un
21478 19651 19660 un
21479 19662 19661 1
21480 19663 19662 un
21481 19664 19663 1
21482 19659 19661 1
21483 19658 19664 1
21484 19666 19665 1
21485 19667 19666 1
21486 19668 19667 un
21487 19663 19665 1
21488 19662 19668 un
21489 19670 19669 un
21490 19671 19670 un
21491 19672 19671 un
21492 19668 19669 un
21493 19667 19672 un
21494 19674 19673 1
21495 19675 19674 1
21496 19676 19675 1
21497 19672 19673 1
21498 19671 19676 1
21499 19678 19677 1
21500 19679 19678 un
21501 19670 19679 un
21502 19676 19677 1
21503 19681 19680 un
21504 19682 19681 un
21505 19683 19682 un
21506 19679 19680 un
21507 19678 19683 un
21508 19636 19684 1
21509 19684 19685 1
21510 19631 19686 1
21511 19635 19687 1
21512 19632 19688 1
21513 19641 19689 1
21514 19642 19690 1
21515 19648 19691 1
21516 19655 19692 1
21517 19654 19693 1
21518 19660 19694 1
21519 19657 19695 1
21520 19664 19696 2
21521 19661 19697 2
21522 19683 19698 1
21523 19682 19699 1
21524 19637 19700 1
21525 19637 19701 1
21526 19640 19702 1
21527 19640 19703 1
21528 19645 19704 1
21529 19653 19705 1
21530 19653 19706 1
21531 19654 19707 1
21532 19655 19708 1
21533 19656 19709 1
21534 19656 19710 1
21535 19665 19711 1
21536 19665 19712 1
21537 19666 19713 1
21538 19666 19714 1
21539 19673 19715 1
21540 19673 19716 1
21541 19674 19717 1
21542 19674 19718 1
21543 19675 19719 1
21544 19675 19720 1
21545 19676 19721 1
21546 19677 19722 1
21547 19677 19723 1
21548 19680 19724 1
21549 19681 19725 1
21550 19684 19726 1
21551 19684 19727 1
21552 19685 19728 1
21553 19685 19729 1
21554 19685 19730 1
21555 19686 19731 1
21556 19686 19732 1
21557 19686 19733 1
21558 19687 19734 1
21559 19687 19735 1
21560 19687 19736 1
21561 19688 19737 1
21562 19688 19738 1
21563 19688 19739 1
21564 19689 19740 1
21565 19689 19741 1
21566 19689 19742 1
21567 19690 19743 1
21568 19690 19744 1
21569 19690 19745 1
21570 19691 19746 1
21571 19692 19747 1
21572 19692 19748 1
21573 19692 19749 1
21574 19693 19750 1
21575 19693 19751 1
21576 19693 19752 1
21577 19694 19753 1
21578 19695 19754 1
21579 19698 19755 1
21580 19698 19756 1
21581 19698 19757 1
21582 19699 19758 1
21583 19699 19759 1
21584 19699 19760 1
21585 19763 19762 un
21586 19764 19763 un
21587 19765 19764 un
21588 19766 19765 un
21589 19761 19762 un
21590 19761 19766 un
21591 19768 19767 1
21592 19769 19768 un
21593 19770 19769 1
21594 19764 19767 1
21595 19763 19770 1
21596 19772 19771 un
21597 19773 19772 un
21598 19774 19773 un
21599 19769 19771 un
21600 19768 19774 un
21601 19776 19775 un
21602 19777 19776 un
21603 19778 19777 un
21604 19774 19775 un
21605 19773 19778 un
21606 19780 19779 1
21607 19781 19780 1
21608 19782 19781 un
21609 19777 19779 1
21610 19776 19782 un
21611 19784 19783 1
21612 19785 19784 un
21613 19786 19785 1
21614 19780 19783 1
21615 19779 19786 1
21616 19788 19787 un
21617 19789 19788 un
21618 19790 19789 un
21619 19782 19787 un
21620 19781 19790 un
21621 19792 19791 1
21622 19793 19792 un
21623 19794 19793 1
21624 19789 19791 1
21625 19788 19794 1
21626 19796 19795 1
21627 19797 19796 1
21628 19798 19797 un
21629 19793 19795 1
21630 19792 19798 un
21631 19800 19799 un
21632 19801 19800 un
21633 19802 19801 un
21634 19798 19799 un
21635 19797 19802 un
21636 19804 19803 1
21637 19805 19804 1
21638 19806 19805 1
21639 19802 19803 1
21640 19801 19806 1
21641 19808 19807 1
21642 19809 19808 un
21643 19800 19809 un
21644 19806 19807 1
21645 19811 19810 un
21646 19812 19811 un
21647 19813 19812 un
21648 19809 19810 un
21649 19808 19813 un
21650 19766 19814 1
21651 19814 19815 1
21652 19761 19816 1
21653 19765 19817 1
21654 19762 19818 1
21655 19771 19819 1
21656 19772 19820 1
21657 19778 19821 1
21658 19785 19822 1
21659 19784 19823 1
21660 19790 19824 1
21661 19787 19825 1
21662 19794 19826 2
21663 19791 19827 2
21664 19813 19828 1
21665 19812 19829 1
21666 19767 19830 1
21667 19767 19831 1
21668 19770 19832 1
21669 19770 19833 1
21670 19775 19834 1
21671 19783 19835 1
21672 19783 19836 1
21673 19784 19837 1
21674 19785 19838 1
21675 19786 19839 1
21676 19786 19840 1
21677 19795 19841 1
21678 19795 19842 1
21679 19796 19843 1
21680 19796 19844 1
21681 19803 19845 1
21682 19803 19846 1
21683 19804 19847 1
21684 19804 19848 1
21685 19805 19849 1
21686 19805 19850 1
21687 19806 19851 1
21688 19807 19852 1
21689 19807 19853 1
21690 19810 19854 1
21691 19811 19855 1
21692 19814 19856 1
21693 19814 19857 1
21694 19815 19858 1
21695 19815 19859 1
21696 19815 19860 1
21697 19816 19861 1
21698 19816 19862 1
21699 19816 19863 1
21700 19817 19864 1
21701 19817 19865 1
21702 19817 19866 1
21703 19818 19867 1
21704 19818 19868 1
21705 19818 19869 1
21706 19819 19870 1
21707 19819 19871 1
21708 19819 19872 1
21709 19820 19873 1
21710 19820 19874 1
21711 19820 19875 1
21712 19821 19876 1
21713 19822 19877 1
21714 19822 19878 1
21715 19822 19879 1
21716 19823 19880 1
21717 19823 19881 1
21718 19823 19882 1
21719 19824 19883 1
21720 19825 19884 1
21721 19828 19885 1
21722 19828 19886 1
21723 19828 19887 1
21724 19829 19888 1
21725 19829 19889 1
21726 19829 19890 1
21727 19893 19892 un
21728 19894 19893 un
21729 19895 19894 un
21730 19896 19895 un
21731 19891 19892 un
21732 19891 19896 un
21733 19898 19897 1
21734 19899 19898 un
21735 19900 19899 1
21736 19894 19897 1
21737 19893 19900 1
21738 19902 19901 un
21739 19903 19902 un
21740 19904 19903 un
21741 19899 19901 un
21742 19898 19904 un
21743 19906 19905 un
21744 19907 19906 un
21745 19908 19907 un
21746 19904 19905 un
21747 19903 19908 un
21748 19910 19909 1
21749 19911 19910 1
21750 19912 19911 un
21751 19907 19909 1
21752 19906 19912 un
21753 19914 19913 1
21754 19915 19914 un
21755 19916 19915 1
21756 19910 19913 1
21757 19909 19916 1
21758 19918 19917 un
21759 19919 19918 un
21760 19920 19919 un
21761 19912 19917 un
21762 19911 19920 un
21763 19922 19921 1
21764 19923 19922 un
21765 19924 19923 1
21766 19919 19921 1
21767 19918 19924 1
21768 19926 19925 1
21769 19927 19926 1
21770 19928 19927 un
21771 19923 19925 1
21772 19922 19928 un
21773 19930 19929 un
21774 19931 19930 un
21775 19932 19931 un
21776 19928 19929 un
21777 19927 19932 un
21778 19934 19933 1
21779 19935 19934 1
21780 19936 19935 1
21781 19932 19933 1
21782 19931 19936 1
21783 19938 19937 1
21784 19939 19938 un
21785 19930 19939 un
21786 19936 19937 1
21787 19941 19940 un
21788 19942 19941 un
21789 19943 19942 un
21790 19939 19940 un
21791 19938 19943 un
21792 19896 19944 1
21793 19944 19945 1
21794 19891 19946 1
21795 19895 19947 1
21796 19892 19948 1
21797 19901 19949 1
21798 19902 19950 1
21799 19908 19951 1
21800 19915 19952 1
21801 19914 19953 1
21802 19920 19954 1
21803 19917 19955 1
21804 19924 19956 2
21805 19921 19957 2
21806 19943 19958 1
21807 19942 19959 1
21808 19897 19960 1
21809 19897 19961 1
21810 19900 19962 1
21811 19900 19963 1
21812 19905 19964 1
21813 19913 19965 1
21814 19913 19966 1
21815 19914 19967 1
21816 19915 19968 1
21817 19916 19969 1
21818 19916 19970 1
21819 19925 19971 1
21820 19925 19972 1
21821 19926 19973 1
21822 19926 19974 1
21823 19933 19975 1
21824 19933 19976 1
21825 19934 19977 1
21826 19934 19978 1
21827 19935 19979 1
21828 19935 19980 1
21829 19936 19981 1
21830 19937 19982 1
21831 19937 19983 1
21832 19940 19984 1
21833 19941 19985 1
21834 19944 19986 1
21835 19944 19987 1
21836 19945 19988 1
21837 19945 19989 1
21838 19945 19990 1
21839 19946 19991 1
21840 19946 19992 1
21841 19946 19993 1
21842 19947 19994 1
21843 19947 19995 1
21844 19947 19996 1
21845 19948 19997 1
21846 19948 19998 1
21847 19948 19999 1
21848 19949 20000 1
21849 19949 20001 1
21850 19949 20002 1
21851 19950 20003 1
21852 19950 20004 1
21853 19950 20005 1
21854 19951 20006 1
21855 19952 20007 1
21856 19952 20008 1
21857 19952 20009 1
21858 19953 20010 1
21859 19953 20011 1
21860 19953 20012 1
21861 19954 20013 1
21862 19955 20014 1
21863 19958 20015 1
21864 19958 20016 1
21865 19958 20017 1
21866 19959 20018 1
21867 19959 20019 1
21868 19959 20020 1
21869 20023 20022 un
21870 20024 20023 un
21871 20025 20024 un
21872 20026 20025 un
21873 20021 20022 un
21874 20021 20026 un
21875 20028 20027 1
21876 20029 20028 un
21877 20030 20029 1
21878 20024 20027 1
21879 20023 20030 1
21880 20032 20031 un
21881 20033 20032 un
21882 20034 20033 un
21883 20029 20031 un
21884 20028 20034 un
21885 20036 20035 un
21886 20037 20036 un
21887 20038 20037 un
21888 20034 20035 un
21889 20033 20038 un
21890 20040 20039 1
21891 20041 20040 1
21892 20042 20041 un
21893 20037 20039 1
21894 20036 20042 un
21895 20044 20043 1
21896 20045 20044 un
21897 20046 20045 1
21898 20040 20043 1
21899 20039 20046 1
21900 20048 20047 un
21901 20049 20048 un
21902 20050 20049 un
21903 20042 20047 un
21904 20041 20050 un
21905 20052 20051 1
21906 20053 20052 un
21907 20054 20053 1
21908 20049 20051 1
21909 20048 20054 1
21910 20056 20055 1
21911 20057 20056 1
21912 20058 20057 un
21913 20053 20055 1
21914 20052 20058 un
21915 20060 20059 un
21916 20061 20060 un
21917 20062 20061 un
21918 20058 20059 un
21919 20057 20062 un
21920 20064 20063 1
21921 20065 20064 1
21922 20066 20065 1
21923 20062 20063 1
21924 20061 20066 1
21925 20068 20067 1
21926 20069 20068 un
21927 20060 20069 un
21928 20066 20067 1
21929 20071 20070 un
21930 20072 20071 un
21931 20073 20072 un
21932 20069 20070 un
21933 20068 20073 un
21934 20026 20074 1
21935 20074 20075 1
21936 20021 20076 1
21937 20025 20077 1
21938 20022 20078 1
21939 20031 20079 1
21940 20032 20080 1
21941 20038 20081 1
21942 20045 20082 1
21943 20044 20083 1
21944 20050 20084 1
21945 20047 20085 1
21946 20054 20086 2
21947 20051 20087 2
21948 20073 20088 1
21949 20072 20089 1
21950 20027 20090 1
21951 20027 20091 1
21952 20030 20092 1
21953 20030 20093 1
21954 20035 20094 1
21955 20043 20095 1
21956 20043 20096 1
21957 20044 20097 1
21958 20045 20098 1
21959 20046 20099 1
21960 20046 20100 1
21961 20055 20101 1
21962 20055 20102 1
21963 20056 20103 1
21964 20056 20104 1
21965 20063 20105 1
21966 20063 20106 1
21967 20064 20107 1
21968 20064 20108 1
21969 20065 20109 1
21970 20065 20110 1
21971 20066 20111 1
21972 20067 20112 1
21973 20067 20113 1
21974 20070 20114 1
21975 20071 20115 1
21976 20074 20116 1
21977 20074 20117 1
21978 20075 20118 1
21979 20075 20119 1
21980 20075 20120 1
21981 20076 20121 1
21982 20076 20122 1
21983 20076 20123 1
21984 20077 20124 1
21985 20077 20125 1
21986 20077 20126 1
21987 20078 20127 1
21988 20078 20128 1
21989 20078 20129 1
21990 20079 20130 1
21991 20079 20131 1
21992 20079 20132 1
21993 20080 20133 1
21994 20080 20134 1
21995 20080 20135 1
21996 20081 20136 1
21997 20082 20137 1
21998 20082 20138 1
21999 20082 20139 1
22000 20083 20140 1
22001 20083 20141 1
22002 20083 20142 1
22003 20084 20143 1
22004 20085 20144 1
22005 20088 20145 1
22006 20088 20146 1
22007 20088 20147 1
22008 20089 20148 1
22009 20089 20149 1
22010 20089 20150 1
22011 20153 20152 un
22012 20154 20153 un
22013 20155 20154 un
22014 20156 20155 un
22015 20151 20152 un
22016 20151 20156 un
22017 20158 20157 1
22018 20159 20158 un
22019 20160 20159 1
22020 20154 20157 1
22021 20153 20160 1
22022 20162 20161 un
22023 20163 20162 un
22024 20164 20163 un
22025 20159 20161 un
22026 20158 20164 un
22027 20166 20165 un
22028 20167 20166 un
22029 20168 20167 un
22030 20164 20165 un
22031 20163 20168 un
22032 20170 20169 1
22033 20171 20170 1
22034 20172 20171 un
22035 20167 20169 1
22036 20166 20172 un
22037 20174 20173 1
22038 20175 20174 un
22039 20176 20175 1
22040 20170 20173 1
22041 20169 20176 1
22042 20178 20177 un
22043 20179 20178 un
22044 20180 20179 un
22045 20172 20177 un
22046 20171 20180 un
22047 20182 20181 1
22048 20183 20182 un
22049 20184 20183 1
22050 20179 20181 1
22051 20178 20184 1
22052 20186 20185 1
22053 20187 20186 1
22054 20188 20187 un
22055 20183 20185 1
22056 20182 20188 un
22057 20190 20189 un
22058 20191 20190 un
22059 20192 20191 un
22060 20188 20189 un
22061 20187 20192 un
22062 20194 20193 1
22063 20195 20194 1
22064 20196 20195 1
22065 20192 20193 1
22066 20191 20196 1
22067 20198 20197 1
22068 20199 20198 un
22069 20190 20199 un
22070 20196 20197 1
22071 20201 20200 un
22072 20202 20201 un
22073 20203 20202 un
22074 20199 20200 un
22075 20198 20203 un
22076 20156 20204 1
22077 20204 20205 1
22078 20151 20206 1
22079 20155 20207 1
22080 20152 20208 1
22081 20161 20209 1
22082 20162 20210 1
22083 20168 20211 1
22084 20175 20212 1
22085 20174 20213 1
22086 20180 20214 1
22087 20177 20215 1
22088 20184 20216 2
22089 20181 20217 2
22090 20203 20218 1
22091 20202 20219 1
22092 20157 20220 1
22093 20157 20221 1
22094 20160 20222 1
22095 20160 20223 1
22096 20165 20224 1
22097 20173 20225 1
22098 20173 20226 1
22099 20174 20227 1
22100 20175 20228 1
22101 20176 20229 1
22102 20176 20230 1
22103 20185 20231 1
22104 20185 20232 1
22105 20186 20233 1
22106 20186 20234 1
22107 20193 20235 1
22108 20193 20236 1
22109 20194 20237 1
22110 20194 20238 1
22111 20195 20239 1
22112 20195 20240 1
22113 20196 20241 1
22114 20197 20242 1
22115 20197 20243 1
22116 20200 20244 1
22117 20201 20245 1
22118 20204 20246 1
22119 20204 20247 1
22120 20205 20248 1
22121 20205 20249 1
22122 20205 20250 1
22123 20206 20251 1
22124 20206 20252 1
22125 20206 20253 1
22126 20207 20254 1
22127 20207 20255 1
22128 20207 20256 1
22129 20208 20257 1
22130 20208 20258 1
22131 20208 20259 1
22132 20209 20260 1
22133 20209 20261 1
22134 20209 20262 1
22135 20210 20263 1
22136 20210 20264 1
22137 20210 20265 1
22138 20211 20266 1
22139 20212 20267 1
22140 20212 20268 1
22141 20212 20269 1
22142 20213 20270 1
22143 20213 20271 1
22144 20213 20272 1
22145 20214 20273 1
22146 20215 20274 1
22147 20218 20275 1
22148 20218 20276 1
22149 20218 20277 1
22150 20219 20278 1
22151 20219 20279 1
22152 20219 20280 1
22153 20283 20282 un
22154 20284 20283 un
22155 20285 20284 un
22156 20286 20285 un
22157 20281 20282 un
22158 20281 20286 un
22159 20288 20287 1
22160 20289 20288 un
22161 20290 20289 1
22162 20284 20287 1
22163 20283 20290 1
22164 20292 20291 un
22165 20293 20292 un
22166 20294 20293 un
22167 20289 20291 un
22168 20288 20294 un
22169 20296 20295 un
22170 20297 20296 un
22171 20298 20297 un
22172 20294 20295 un
22173 20293 20298 un
22174 20300 20299 1
22175 20301 20300 1
22176 20302 20301 un
22177 20297 20299 1
22178 20296 20302 un
22179 20304 20303 1
22180 20305 20304 un
22181 20306 20305 1
22182 20300 20303 1
22183 20299 20306 1
22184 20308 20307 un
22185 20309 20308 un
22186 20310 20309 un
22187 20302 20307 un
22188 20301 20310 un
22189 20312 20311 1
22190 20313 20312 un
22191 20314 20313 1
22192 20309 20311 1
22193 20308 20314 1
22194 20316 20315 1
22195 20317 20316 1
22196 20318 20317 un
22197 20313 20315 1
22198 20312 20318 un
22199 20320 20319 un
22200 20321 20320 un
22201 20322 20321 un
22202 20318 20319 un
22203 20317 20322 un
22204 20324 20323 1
22205 20325 20324 1
22206 20326 20325 1
22207 20322 20323 1
22208 20321 20326 1
22209 20328 20327 1
22210 20329 20328 un
22211 20320 20329 un
22212 20326 20327 1
22213 20331 20330 un
22214 20332 20331 un
22215 20333 20332 un
22216 20329 20330 un
22217 20328 20333 un
22218 20286 20334 1
22219 20334 20335 1
22220 20281 20336 1
22221 20285 20337 1
22222 20282 20338 1
22223 20291 20339 1
22224 20292 20340 1
22225 20298 20341 1
22226 20305 20342 1
22227 20304 20343 1
22228 20310 20344 1
22229 20307 20345 1
22230 20314 20346 2
22231 20311 20347 2
22232 20333 20348 1
22233 20332 20349 1
22234 20287 20350 1
22235 20287 20351 1
22236 20290 20352 1
22237 20290 20353 1
22238 20295 20354 1
22239 20303 20355 1
22240 20303 20356 1
22241 20304 20357 1
22242 20305 20358 1
22243 20306 20359 1
22244 20306 20360 1
22245 20315 20361 1
22246 20315 20362 1
22247 20316 20363 1
22248 20316 20364 1
22249 20323 20365 1
22250 20323 20366 1
22251 20324 20367 1
22252 20324 20368 1
22253 20325 20369 1
22254 20325 20370 1
22255 20326 20371 1
22256 20327 20372 1
22257 20327 20373 1
22258 20330 20374 1
22259 20331 20375 1
22260 20334 20376 1
22261 20334 20377 1
22262 20335 20378 1
22263 20335 20379 1
22264 20335 20380 1
22265 20336 20381 1
22266 20336 20382 1
22267 20336 20383 1
22268 20337 20384 1
22269 20337 20385 1
22270 20337 20386 1
22271 20338 20387 1
22272 20338 20388 1
22273 20338 20389 1
22274 20339 20390 1
22275 20339 20391 1
22276 20339 20392 1
22277 20340 20393 1
22278 20340 20394 1
22279 20340 20395 1
22280 20341 20396 1
22281 20342 20397 1
22282 20342 20398 1
22283 20342 20399 1
22284 20343 20400 1
22285 20343 20401 1
22286 20343 20402 1
22287 20344 20403 1
22288 20345 20404 1
22289 20348 20405 1
22290 20348 20406 1
22291 20348 20407 1
22292 20349 20408 1
22293 20349 20409 1
22294 20349 20410 1
22295 20413 20412 un
22296 20414 20413 un
22297 20415 20414 un
22298 20416 20415 un
22299 20411 20412 un
22300 20411 20416 un
22301 20418 20417 1
22302 20419 20418 un
22303 20420 20419 1
22304 20414 20417 1
22305 20413 20420 1
22306 20422 20421 un
22307 20423 20422 un
22308 20424 20423 un
22309 20419 20421 un
22310 20418 20424 un
22311 20426 20425 un
22312 20427 20426 un
22313 20428 20427 un
22314 20424 20425 un
22315 20423 20428 un
22316 20430 20429 1
22317 20431 20430 1
22318 20432 20431 un
22319 20427 20429 1
22320 20426 20432 un
22321 20434 20433 1
22322 20435 20434 un
22323 20436 20435 1
22324 20430 20433 1
22325 20429 20436 1
22326 20438 20437 un
22327 20439 20438 un
22328 20440 20439 un
22329 20432 20437 un
22330 20431 20440 un
22331 20442 20441 1
22332 20443 20442 un
22333 20444 20443 1
22334 20439 20441 1
22335 20438 20444 1
22336 20446 20445 1
22337 20447 20446 1
22338 20448 20447 un
22339 20443 20445 1
22340 20442 20448 un
22341 20450 20449 un
22342 20451 20450 un
22343 20452 20451 un
22344 20448 20449 un
22345 20447 20452 un
22346 20454 20453 1
22347 20455 20454 1
22348 20456 20455 1
22349 20452 20453 1
22350 20451 20456 1
22351 20458 20457 1
22352 20459 20458 un
22353 20450 20459 un
22354 20456 20457 1
22355 20461 20460 un
22356 20462 20461 un
22357 20463 20462 un
22358 20459 20460 un
22359 20458 20463 un
22360 20416 20464 1
22361 20464 20465 1
22362 20411 20466 1
22363 20415 20467 1
22364 20412 20468 1
22365 20421 20469 1
22366 20422 20470 1
22367 20428 20471 1
22368 20435 20472 1
22369 20434 20473 1
22370 20440 20474 1
22371 20437 20475 1
22372 20444 20476 2
22373 20441 20477 2
22374 20463 20478 1
22375 20462 20479 1
22376 20417 20480 1
22377 20417 20481 1
22378 20420 20482 1
22379 20420 20483 1
22380 20425 20484 1
22381 20433 20485 1
22382 20433 20486 1
22383 20434 20487 1
22384 20435 20488 1
22385 20436 20489 1
22386 20436 20490 1
22387 20445 20491 1
22388 20445 20492 1
22389 20446 20493 1
22390 20446 20494 1
22391 20453 20495 1
22392 20453 20496 1
22393 20454 20497 1
22394 20454 20498 1
22395 20455 20499 1
22396 20455 20500 1
22397 20456 20501 1
22398 20457 20502 1
22399 20457 20503 1
22400 20460 20504 1
22401 20461 20505 1
22402 20464 20506 1
22403 20464 20507 1
22404 20465 20508 1
22405 20465 20509 1
22406 20465 20510 1
22407 20466 20511 1
22408 20466 20512 1
22409 20466 20513 1
22410 20467 20514 1
22411 20467 20515 1
22412 20467 20516 1
22413 20468 20517 1
22414 20468 20518 1
22415 20468 20519 1
22416 20469 20520 1
22417 20469 20521 1
22418 20469 20522 1
22419 20470 20523 1
22420 20470 20524 1
22421 20470 20525 1
22422 20471 20526 1
22423 20472 20527 1
22424 20472 20528 1
22425 20472 20529 1
22426 20473 20530 1
22427 20473 20531 1
22428 20473 20532 1
22429 20474 20533 1
22430 20475 20534 1
22431 20478 20535 1
22432 20478 20536 1
22433 20478 20537 1
22434 20479 20538 1
22435 20479 20539 1
22436 20479 20540 1
22437 20541 20542 am
22438 20542 20543 am
22439 20543 20544 am
22440 20544 20545 am
22441 20545 20546 am
22442 20546 20541 am
22443 20547 20548 am
22444 20548 20549 1
22445 20543 20549 1
22446 20544 20547 1
22447 20550 20551 am
22448 20551 20552 am
22449 20552 20553 am
22450 20547 20553 am
22451 20548 20550 am
22452 20554 20555 1
22453 20555 20556 1
22454 20556 20557 1
22455 20552 20557 1
22456 20553 20554 1
22457 20558 20559 am
22458 20559 20560 am
22459 20551 20560 am
22460 20557 20558 am
22461 20561 20562 am
22462 20562 20563 am
22463 20550 20563 am
22464 20560 20561 am
22465 20564 20565 1
22466 20565 20566 am
22467 20566 20567 1
22468 20558 20567 1
22469 20559 20564 1
22470 20568 20569 am
22471 20569 20570 am
22472 20570 20571 am
22473 20565 20571 am
22474 20566 20568 am
22475 20572 20573 1
22476 20573 20574 1
22477 20574 20575 1
22478 20569 20575 1
22479 20570 20572 1
22480 20576 20577 am
22481 20577 20578 am
22482 20571 20576 am
22483 20572 20578 am
22484 20579 20580 1
22485 20580 20581 am
22486 20561 20581 am
22487 20562 20579 1
22488 20582 20583 am
22489 20583 20584 am
22490 20584 20585 am
22491 20580 20585 am
22492 20581 20582 am
22493 20586 20587 am
22494 20587 20588 am
22495 20588 20589 am
22496 20584 20589 am
22497 20585 20586 am
22498 20590 20591 am
22499 20591 20592 am
22500 20583 20592 am
22501 20589 20590 am
22502 20541 20593 1
22503 20546 20594 1
22504 20563 20595 1
22505 20587 20596 1
22506 20596 20597 1
22507 20577 20598 1
22508 20568 20599 1
22509 20590 20600 1
22510 20542 20601 1
22511 20545 20602 1
22512 20549 20603 1
22513 20549 20604 1
22514 20554 20605 1
22515 20554 20606 1
22516 20555 20607 1
22517 20555 20608 1
22518 20556 20609 1
22519 20556 20610 1
22520 20564 20611 1
22521 20567 20612 1
22522 20573 20613 1
22523 20573 20614 1
22524 20574 20615 1
22525 20574 20616 1
22526 20575 20617 1
22527 20575 20618 1
22528 20576 20619 1
22529 20578 20620 1
22530 20579 20621 1
22531 20579 20622 1
22532 20582 20623 1
22533 20586 20624 1
22534 20588 20625 1
22535 20591 20626 1
22536 20592 20627 1
22537 20593 20628 1
22538 20594 20629 1
22539 20594 20630 1
22540 20594 20631 1
22541 20595 20632 1
22542 20596 20633 1
22543 20597 20634 1
22544 20597 20635 1
22545 20597 20636 1
22546 20598 20637 1
22547 20599 20638 1
22548 20600 20639 1
22549 20564 20640 1
22550 20567 20641 1
22551 20596 20642 1
22552 20643 20644 am
22553 20644 20645 am
22554 20645 20646 am
22555 20646 20647 am
22556 20647 20648 am
22557 20648 20643 am
22558 20649 20650 am
22559 20650 20651 1
22560 20645 20651 1
22561 20646 20649 1
22562 20652 20653 am
22563 20653 20654 am
22564 20654 20655 am
22565 20649 20655 am
22566 20650 20652 am
22567 20656 20657 1
22568 20657 20658 1
22569 20658 20659 1
22570 20654 20659 1
22571 20655 20656 1
22572 20660 20661 am
22573 20661 20662 am
22574 20653 20662 am
22575 20659 20660 am
22576 20663 20664 am
22577 20664 20665 am
22578 20652 20665 am
22579 20662 20663 am
22580 20666 20667 1
22581 20667 20668 am
22582 20668 20669 1
22583 20660 20669 1
22584 20661 20666 1
22585 20670 20671 am
22586 20671 20672 am
22587 20672 20673 am
22588 20667 20673 am
22589 20668 20670 am
22590 20674 20675 1
22591 20675 20676 1
22592 20676 20677 1
22593 20671 20677 1
22594 20672 20674 1
22595 20678 20679 am
22596 20679 20680 am
22597 20673 20678 am
22598 20674 20680 am
22599 20681 20682 1
22600 20682 20683 am
22601 20663 20683 am
22602 20664 20681 1
22603 20684 20685 am
22604 20685 20686 am
22605 20686 20687 am
22606 20682 20687 am
22607 20683 20684 am
22608 20688 20689 am
22609 20689 20690 am
22610 20690 20691 am
22611 20686 20691 am
22612 20687 20688 am
22613 20692 20693 am
22614 20693 20694 am
22615 20685 20694 am
22616 20691 20692 am
22617 20643 20695 1
22618 20648 20696 1
22619 20665 20697 1
22620 20689 20698 1
22621 20698 20699 1
22622 20679 20700 1
22623 20670 20701 1
22624 20692 20702 1
22625 20644 20703 1
22626 20647 20704 1
22627 20651 20705 1
22628 20651 20706 1
22629 20656 20707 1
22630 20656 20708 1
22631 20657 20709 1
22632 20657 20710 1
22633 20658 20711 1
22634 20658 20712 1
22635 20666 20713 1
22636 20669 20714 1
22637 20675 20715 1
22638 20675 20716 1
22639 20676 20717 1
22640 20676 20718 1
22641 20677 20719 1
22642 20677 20720 1
22643 20678 20721 1
22644 20680 20722 1
22645 20681 20723 1
22646 20681 20724 1
22647 20684 20725 1
22648 20688 20726 1
22649 20690 20727 1
22650 20693 20728 1
22651 20694 20729 1
22652 20695 20730 1
22653 20696 20731 1
22654 20696 20732 1
22655 20696 20733 1
22656 20697 20734 1
22657 20698 20735 1
22658 20699 20736 1
22659 20699 20737 1
22660 20699 20738 1
22661 20700 20739 1
22662 20701 20740 1
22663 20702 20741 1
22664 20666 20742 1
22665 20669 20743 1
22666 20698 20744 1
22667 20745 20746 am
22668 20746 20747 am
22669 20747 20748 am
22670 20748 20749 am
22671 20749 20750 am
22672 20750 20745 am
22673 20751 20752 am
22674 20752 20753 1
22675 20747 20753 1
22676 20748 20751 1
22677 20754 20755 am
22678 20755 20756 am
22679 20756 20757 am
22680 20751 20757 am
22681 20752 20754 am
22682 20758 20759 1
22683 20759 20760 1
22684 20760 20761 1
22685 20756 20761 1
22686 20757 20758 1
22687 20762 20763 am
22688 20763 20764 am
22689 20755 20764 am
22690 20761 20762 am
22691 20765 20766 am
22692 20766 20767 am
22693 20754 20767 am
22694 20764 20765 am
22695 20768 20769 1
22696 20769 20770 am
22697 20770 20771 1
22698 20762 20771 1
22699 20763 20768 1
22700 20772 20773 am
22701 20773 20774 am
22702 20774 20775 am
22703 20769 20775 am
22704 20770 20772 am
22705 20776 20777 1
22706 20777 20778 1
22707 20778 20779 1
22708 20773 20779 1
22709 20774 20776 1
22710 20780 20781 am
22711 20781 20782 am
22712 20775 20780 am
22713 20776 20782 am
22714 20783 20784 1
22715 20784 20785 am
22716 20765 20785 am
22717 20766 20783 1
22718 20786 20787 am
22719 20787 20788 am
22720 20788 20789 am
22721 20784 20789 am
22722 20785 20786 am
22723 20790 20791 am
22724 20791 20792 am
22725 20792 20793 am
22726 20788 20793 am
22727 20789 20790 am
22728 20794 20795 am
22729 20795 20796 am
22730 20787 20796 am
22731 20793 20794 am
22732 20745 20797 1
22733 20750 20798 1
22734 20767 20799 1
22735 20791 20800 1
22736 20800 20801 1
22737 20781 20802 1
22738 20772 20803 1
22739 20794 20804 1
22740 20746 20805 1
22741 20749 20806 1
22742 20753 20807 1
22743 20753 20808 1
22744 20758 20809 1
22745 20758 20810 1
22746 20759 20811 1
22747 20759 20812 1
22748 20760 20813 1
22749 20760 20814 1
22750 20768 20815 1
22751 20771 20816 1
22752 20777 20817 1
22753 20777 20818 1
22754 20778 20819 1
22755 20778 20820 1
22756 20779 20821 1
22757 20779 20822 1
22758 20780 20823 1
22759 20782 20824 1
22760 20783 20825 1
22761 20783 20826 1
22762 20786 20827 1
22763 20790 20828 1
22764 20792 20829 1
22765 20795 20830 1
22766 20796 20831 1
22767 20797 20832 1
22768 20798 20833 1
22769 20798 20834 1
22770 20798 20835 1
22771 20799 20836 1
22772 20800 20837 1
22773 20801 20838 1
22774 20801 20839 1
22775 20801 20840 1
22776 20802 20841 1
22777 20803 20842 1
22778 20804 20843 1
22779 20768 20844 1
22780 20771 20845 1
22781 20800 20846 1
22782 20847 20848 am
22783 20848 20849 am
22784 20849 20850 am
22785 20850 20851 am
22786 20851 20852 am
22787 20852 20847 am
22788 20853 20854 am
22789 20854 20855 1
22790 20849 20855 1
22791 20850 20853 1
22792 20856 20857 am
22793 20857 20858 am
22794 20858 20859 am
22795 20853 20859 am
22796 20854 20856 am
22797 20860 20861 1
22798 20861 20862 1
22799 20862 20863 1
22800 20858 20863 1
22801 20859 20860 1
22802 20864 20865 am
22803 20865 20866 am
22804 20857 20866 am
22805 20863 20864 am
22806 20867 20868 am
22807 20868 20869 am
22808 20856 20869 am
22809 20866 20867 am
22810 20870 20871 1
22811 20871 20872 am
22812 20872 20873 1
22813 20864 20873 1
22814 20865 20870 1
22815 20874 20875 am
22816 20875 20876 am
22817 20876 20877 am
22818 20871 20877 am
22819 20872 20874 am
22820 20878 20879 1
22821 20879 20880 1
22822 20880 20881 1
22823 20875 20881 1
22824 20876 20878 1
22825 20882 20883 am
22826 20883 20884 am
22827 20877 20882 am
22828 20878 20884 am
22829 20885 20886 1
22830 20886 20887 am
22831 20867 20887 am
22832 20868 20885 1
22833 20888 20889 am
22834 20889 20890 am
22835 20890 20891 am
22836 20886 20891 am
22837 20887 20888 am
22838 20892 20893 am
22839 20893 20894 am
22840 20894 20895 am
22841 20890 20895 am
22842 20891 20892 am
22843 20896 20897 am
22844 20897 20898 am
22845 20889 20898 am
22846 20895 20896 am
22847 20847 20899 1
22848 20852 20900 1
22849 20869 20901 1
22850 20893 20902 1
22851 20902 20903 1
22852 20883 20904 1
22853 20874 20905 1
22854 20896 20906 1
22855 20848 20907 1
22856 20851 20908 1
22857 20855 20909 1
22858 20855 20910 1
22859 20860 20911 1
22860 20860 20912 1
22861 20861 20913 1
22862 20861 20914 1
22863 20862 20915 1
22864 20862 20916 1
22865 20870 20917 1
22866 20873 20918 1
22867 20879 20919 1
22868 20879 20920 1
22869 20880 20921 1
22870 20880 20922 1
22871 20881 20923 1
22872 20881 20924 1
22873 20882 20925 1
22874 20884 20926 1
22875 20885 20927 1
22876 20885 20928 1
22877 20888 20929 1
22878 20892 20930 1
22879 20894 20931 1
22880 20897 20932 1
22881 20898 20933 1
22882 20899 20934 1
22883 20900 20935 1
22884 20900 20936 1
22885 20900 20937 1
22886 20901 20938 1
22887 20902 20939 1
22888 20903 20940 1
22889 20903 20941 1
22890 20903 20942 1
22891 20904 20943 1
22892 20905 20944 1
22893 20906 20945 1
22894 20870 20946 1
22895 20873 20947 1
22896 20902 20948 1
22897 20949 20950 am
22898 20950 20951 am
22899 20951 20952 am
22900 20952 20953 am
22901 20953 20954 am
22902 20954 20949 am
22903 20955 20956 am
22904 20956 20957 1
22905 20951 20957 1
22906 20952 20955 1
22907 20958 20959 am
22908 20959 20960 am
22909 20960 20961 am
22910 20955 20961 am
22911 20956 20958 am
22912 20962 20963 1
22913 20963 20964 1
22914 20964 20965 1
22915 20960 20965 1
22916 20961 20962 1
22917 20966 20967 am
22918 20967 20968 am
22919 20959 20968 am
22920 20965 20966 am
22921 20969 20970 am
22922 20970 20971 am
22923 20958 20971 am
22924 20968 20969 am
22925 20972 20973 1
22926 20973 20974 am
22927 20974 20975 1
22928 20966 20975 1
22929 20967 20972 1
22930 20976 20977 am
22931 20977 20978 am
22932 20978 20979 am
22933 20973 20979 am
22934 20974 20976 am
22935 20980 20981 1
22936 20981 20982 1
22937 20982 20983 1
22938 20977 20983 1
22939 20978 20980 1
22940 20984 20985 am
22941 20985 20986 am
22942 20979 20984 am
22943 20980 20986 am
22944 20987 20988 1
22945 20988 20989 am
22946 20969 20989 am
22947 20970 20987 1
22948 20990 20991 am
22949 20991 20992 am
22950 20992 20993 am
22951 20988 20993 am
22952 20989 20990 am
22953 20994 20995 am
22954 20995 20996 am
22955 20996 20997 am
22956 20992 20997 am
22957 20993 20994 am
22958 20998 20999 am
22959 20999 21000 am
22960 20991 21000 am
22961 20997 20998 am
22962 20949 21001 1
22963 20954 21002 1
22964 20971 21003 1
22965 20995 21004 1
22966 21004 21005 1
22967 20985 21006 1
22968 20976 21007 1
22969 20998 21008 1
22970 20950 21009 1
22971 20953 21010 1
22972 20957 21011 1
22973 20957 21012 1
22974 20962 21013 1
22975 20962 21014 1
22976 20963 21015 1
22977 20963 21016 1
22978 20964 21017 1
22979 20964 21018 1
22980 20972 21019 1
22981 20975 21020 1
22982 20981 21021 1
22983 20981 21022 1
22984 20982 21023 1
22985 20982 21024 1
22986 20983 21025 1
22987 20983 21026 1
22988 20984 21027 1
22989 20986 21028 1
22990 20987 21029 1
22991 20987 21030 1
22992 20990 21031 1
22993 20994 21032 1
22994 20996 21033 1
22995 20999 21034 1
22996 21000 21035 1
22997 21001 21036 1
22998 21002 21037 1
22999 21002 21038 1
23000 21002 21039 1
23001 21003 21040 1
23002 21004 21041 1
23003 21005 21042 1
23004 21005 21043 1
23005 21005 21044 1
23006 21006 21045 1
23007 21007 21046 1
23008 21008 21047 1
23009 20972 21048 1
23010 20975 21049 1
23011 21004 21050 1
23012 21051 21052 am
23013 21052 21053 am
23014 21053 21054 am
23015 21054 21055 am
23016 21055 21056 am
23017 21056 21051 am
23018 21057 21058 am
23019 21058 21059 1
23020 21053 21059 1
23021 21054 21057 1
23022 21060 21061 am
23023 21061 21062 am
23024 21062 21063 am
23025 21057 21063 am
23026 21058 21060 am
23027 21064 21065 1
23028 21065 21066 1
23029 21066 21067 1
23030 21062 21067 1
23031 21063 21064 1
23032 21068 21069 am
23033 21069 21070 am
23034 21061 21070 am
23035 21067 21068 am
23036 21071 21072 am
23037 21072 21073 am
23038 21060 21073 am
23039 21070 21071 am
23040 21074 21075 1
23041 21075 21076 am
23042 21076 21077 1
23043 21068 21077 1
23044 21069 21074 1
23045 21078 21079 am
23046 21079 21080 am
23047 21080 21081 am
23048 21075 21081 am
23049 21076 21078 am
23050 21082 21083 1
23051 21083 21084 1
23052 21084 21085 1
23053 21079 21085 1
23054 21080 21082 1
23055 21086 21087 am
23056 21087 21088 am
23057 21081 21086 am
23058 21082 21088 am
23059 21089 21090 1
23060 21090 21091 am
23061 21071 21091 am
23062 21072 21089 1
23063 21092 21093 am
23064 21093 21094 am
23065 21094 21095 am
23066 21090 21095 am
23067 21091 21092 am
23068 21096 21097 am
23069 21097 21098 am
23070 21098 21099 am
23071 21094 21099 am
23072 21095 21096 am
23073 21100 21101 am
23074 21101 21102 am
23075 21093 21102 am
23076 21099 21100 am
23077 21051 21103 1
23078 21056 21104 1
23079 21073 21105 1
23080 21097 21106 1
23081 21106 21107 1
23082 21087 21108 1
23083 21078 21109 1
23084 21100 21110 1
23085 21052 21111 1
23086 21055 21112 1
23087 21059 21113 1
23088 21059 21114 1
23089 21064 21115 1
23090 21064 21116 1
23091 21065 21117 1
23092 21065 21118 1
23093 21066 21119 1
23094 21066 21120 1
23095 21074 21121 1
23096 21077 21122 1
23097 21083 21123 1
23098 21083 21124 1
23099 21084 21125 1
23100 21084 21126 1
23101 21085 21127 1
23102 21085 21128 1
23103 21086 21129 1
23104 21088 21130 1
23105 21089 21131 1
23106 21089 21132 1
23107 21092 21133 1
23108 21096 21134 1
23109 21098 21135 1
23110 21101 21136 1
23111 21102 21137 1
23112 21103 21138 1
23113 21104 21139 1
23114 21104 21140 1
23115 21104 21141 1
23116 21105 21142 1
23117 21106 21143 1
23118 21107 21144 1
23119 21107 21145 1
23120 21107 21146 1
23121 21108 21147 1
23122 21109 21148 1
23123 21110 21149 1
23124 21074 21150 1
23125 21077 21151 1
23126 21106 21152 1
23127 21153 21154 am
23128 21154 21155 am
23129 21155 21156 am
23130 21156 21157 am
23131 21157 21158 am
23132 21158 21153 am
23133 21159 21160 am
23134 21160 21161 1
23135 21155 21161 1
23136 21156 21159 1
23137 21162 21163 am
23138 21163 21164 am
23139 21164 21165 am
23140 21159 21165 am
23141 21160 21162 am
23142 21166 21167 1
23143 21167 21168 1
23144 21168 21169 1
23145 21164 21169 1
23146 21165 21166 1
23147 21170 21171 am
23148 21171 21172 am
23149 21163 21172 am
23150 21169 21170 am
23151 21173 21174 am
23152 21174 21175 am
23153 21162 21175 am
23154 21172 21173 am
23155 21176 21177 1
23156 21177 21178 am
23157 21178 21179 1
23158 21170 21179 1
23159 21171 21176 1
23160 21180 21181 am
23161 21181 21182 am
23162 21182 21183 am
23163 21177 21183 am
23164 21178 21180 am
23165 21184 21185 1
23166 21185 21186 1
23167 21186 21187 1
23168 21181 21187 1
23169 21182 21184 1
23170 21188 21189 am
23171 21189 21190 am
23172 21183 21188 am
23173 21184 21190 am
23174 21191 21192 1
23175 21192 21193 am
23176 21173 21193 am
23177 21174 21191 1
23178 21194 21195 am
23179 21195 21196 am
23180 21196 21197 am
23181 21192 21197 am
23182 21193 21194 am
23183 21198 21199 am
23184 21199 21200 am
23185 21200 21201 am
23186 21196 21201 am
23187 21197 21198 am
23188 21202 21203 am
23189 21203 21204 am
23190 21195 21204 am
23191 21201 21202 am
23192 21153 21205 1
23193 21158 21206 1
23194 21175 21207 1
23195 21199 21208 1
23196 21208 21209 1
23197 21189 21210 1
23198 21180 21211 1
23199 21202 21212 1
23200 21154 21213 1
23201 21157 21214 1
23202 21161 21215 1
23203 21161 21216 1
23204 21166 21217 1
23205 21166 21218 1
23206 21167 21219 1
23207 21167 21220 1
23208 21168 21221 1
23209 21168 21222 1
23210 21176 21223 1
23211 21179 21224 1
23212 21185 21225 1
23213 21185 21226 1
23214 21186 21227 1
23215 21186 21228 1
23216 21187 21229 1
23217 21187 21230 1
23218 21188 21231 1
23219 21190 21232 1
23220 21191 21233 1
23221 21191 21234 1
23222 21194 21235 1
23223 21198 21236 1
23224 21200 21237 1
23225 21203 21238 1
23226 21204 21239 1
23227 21205 21240 1
23228 21206 21241 1
23229 21206 21242 1
23230 21206 21243 1
23231 21207 21244 1
23232 21208 21245 1
23233 21209 21246 1
23234 21209 21247 1
23235 21209 21248 1
23236 21210 21249 1
23237 21211 21250 1
23238 21212 21251 1
23239 21176 21252 1
23240 21179 21253 1
23241 21208 21254 1
23242 21255 21256 am
23243 21256 21257 am
23244 21257 21258 am
23245 21258 21259 am
23246 21259 21260 am
23247 21260 21255 am
23248 21261 21262 am
23249 21262 21263 1
23250 21257 21263 1
23251 21258 21261 1
23252 21264 21265 am
23253 21265 21266 am
23254 21266 21267 am
23255 21261 21267 am
23256 21262 21264 am
23257 21268 21269 1
23258 21269 21270 1
23259 21270 21271 1
23260 21266 21271 1
23261 21267 21268 1
23262 21272 21273 am
23263 21273 21274 am
23264 21265 21274 am
23265 21271 21272 am
23266 21275 21276 am
23267 21276 21277 am
23268 21264 21277 am
23269 21274 21275 am
23270 21278 21279 1
23271 21279 21280 am
23272 21280 21281 1
23273 21272 21281 1
23274 21273 21278 1
23275 21282 21283 am
23276 21283 21284 am
23277 21284 21285 am
23278 21279 21285 am
23279 21280 21282 am
23280 21286 21287 1
23281 21287 21288 1
23282 21288 21289 1
23283 21283 21289 1
23284 21284 21286 1
23285 21290 21291 am
23286 21291 21292 am
23287 21285 21290 am
23288 21286 21292 am
23289 21293 21294 1
23290 21294 21295 am
23291 21275 21295 am
23292 21276 21293 1
23293 21296 21297 am
23294 21297 21298 am
23295 21298 21299 am
23296 21294 21299 am
23297 21295 21296 am
23298 21300 21301 am
23299 21301 21302 am
23300 21302 21303 am
23301 21298 21303 am
23302 21299 21300 am
23303 21304 21305 am
23304 21305 21306 am
23305 21297 21306 am
23306 21303 21304 am
23307 21255 21307 1
23308 21260 21308 1
23309 21277 21309 1
23310 21301 21310 1
23311 21310 21311 1
23312 21291 21312 1
23313 21282 21313 1
23314 21304 21314 1
23315 21256 21315 1
23316 21259 21316 1
23317 21263 21317 1
23318 21263 21318 1
23319 21268 21319 1
23320 21268 21320 1
23321 21269 21321 1
23322 21269 21322 1
23323 21270 21323 1
23324 21270 21324 1
23325 21278 21325 1
23326 21281 21326 1
23327 21287 21327 1
23328 21287 21328 1
23329 21288 21329 1
23330 21288 21330 1
23331 21289 21331 1
23332 21289 21332 1
23333 21290 21333 1
23334 21292 21334 1
23335 21293 21335 1
23336 21293 21336 1
23337 21296 21337 1
23338 21300 21338 1
23339 21302 21339 1
23340 21305 21340 1
23341 21306 21341 1
23342 21307 21342 1
23343 21308 21343 1
23344 21308 21344 1
23345 21308 21345 1
23346 21309 21346 1
23347 21310 21347 1
23348 21311 21348 1
23349 21311 21349 1
23350 21311 21350 1
23351 21312 21351 1
23352 21313 21352 1
23353 21314 21353 1
23354 21278 21354 1
23355 21281 21355 1
23356 21310 21356 1
23357 21357 21358 am
23358 21358 21359 am
23359 21359 21360 am
23360 21360 21361 am
23361 21361 21362 am
23362 21362 21357 am
23363 21363 21364 am
23364 21364 21365 1
23365 21359 21365 1
23366 21360 21363 1
23367 21366 21367 am
23368 21367 21368 am
23369 21368 21369 am
23370 21363 21369 am
23371 21364 21366 am
23372 21370 21371 1
23373 21371 21372 1
23374 21372 21373 1
23375 21368 21373 1
23376 21369 21370 1
23377 21374 21375 am
23378 21375 21376 am
23379 21367 21376 am
23380 21373 21374 am
23381 21377 21378 am
23382 21378 21379 am
23383 21366 21379 am
23384 21376 21377 am
23385 21380 21381 1
23386 21381 21382 am
23387 21382 21383 1
23388 21374 21383 1
23389 21375 21380 1
23390 21384 21385 am
23391 21385 21386 am
23392 21386 21387 am
23393 21381 21387 am
23394 21382 21384 am
23395 21388 21389 1
23396 21389 21390 1
23397 21390 21391 1
23398 21385 21391 1
23399 21386 21388 1
23400 21392 21393 am
23401 21393 21394 am
23402 21387 21392 am
23403 21388 21394 am
23404 21395 21396 1
23405 21396 21397 am
23406 21377 21397 am
23407 21378 21395 1
23408 21398 21399 am
23409 21399 21400 am
23410 21400 21401 am
23411 21396 21401 am
23412 21397 21398 am
23413 21402 21403 am
23414 21403 21404 am
23415 21404 21405 am
23416 21400 21405 am
23417 21401 21402 am
23418 21406 21407 am
23419 21407 21408 am
23420 21399 21408 am
23421 21405 21406 am
23422 21357 21409 1
23423 21362 21410 1
23424 21379 21411 1
23425 21403 21412 1
23426 21412 21413 1
23427 21393 21414 1
23428 21384 21415 1
23429 21406 21416 1
23430 21358 21417 1
23431 21361 21418 1
23432 21365 21419 1
23433 21365 21420 1
23434 21370 21421 1
23435 21370 21422 1
23436 21371 21423 1
23437 21371 21424 1
23438 21372 21425 1
23439 21372 21426 1
23440 21380 21427 1
23441 21383 21428 1
23442 21389 21429 1
23443 21389 21430 1
23444 21390 21431 1
23445 21390 21432 1
23446 21391 21433 1
23447 21391 21434 1
23448 21392 21435 1
23449 21394 21436 1
23450 21395 21437 1
23451 21395 21438 1
23452 21398 21439 1
23453 21402 21440 1
23454 21404 21441 1
23455 21407 21442 1
23456 21408 21443 1
23457 21409 21444 1
23458 21410 21445 1
23459 21410 21446 1
23460 21410 21447 1
23461 21411 21448 1
23462 21412 21449 1
23463 21413 21450 1
23464 21413 21451 1
23465 21413 21452 1
23466 21414 21453 1
23467 21415 21454 1
23468 21416 21455 1
23469 21380 21456 1
23470 21383 21457 1
23471 21412 21458 1
23472 21459 21460 am
23473 21460 21461 am
23474 21461 21462 am
23475 21462 21463 am
23476 21463 21464 am
23477 21464 21459 am
23478 21465 21466 am
23479 21466 21467 1
23480 21461 21467 1
23481 21462 21465 1
23482 21468 21469 am
23483 21469 21470 am
23484 21470 21471 am
23485 21465 21471 am
23486 21466 21468 am
23487 21472 21473 1
23488 21473 21474 1
23489 21474 21475 1
23490 21470 21475 1
23491 21471 21472 1
23492 21476 21477 am
23493 21477 21478 am
23494 21469 21478 am
23495 21475 21476 am
23496 21479 21480 am
23497 21480 21481 am
23498 21468 21481 am
23499 21478 21479 am
23500 21482 21483 1
23501 21483 21484 am
23502 21484 21485 1
23503 21476 21485 1
23504 21477 21482 1
23505 21486 21487 am
23506 21487 21488 am
23507 21488 21489 am
23508 21483 21489 am
23509 21484 21486 am
23510 21490 21491 1
23511 21491 21492 1
23512 21492 21493 1
23513 21487 21493 1
23514 21488 21490 1
23515 21494 21495 am
23516 21495 21496 am
23517 21489 21494 am
23518 21490 21496 am
23519 21497 21498 1
23520 21498 21499 am
23521 21479 21499 am
23522 21480 21497 1
23523 21500 21501 am
23524 21501 21502 am
23525 21502 21503 am
23526 21498 21503 am
23527 21499 21500 am
23528 21504 21505 am
23529 21505 21506 am
23530 21506 21507 am
23531 21502 21507 am
23532 21503 21504 am
23533 21508 21509 am
23534 21509 21510 am
23535 21501 21510 am
23536 21507 21508 am
23537 21459 21511 1
23538 21464 21512 1
23539 21481 21513 1
23540 21505 21514 1
23541 21514 21515 1
23542 21495 21516 1
23543 21486 21517 1
23544 21508 21518 1
23545 21460 21519 1
23546 21463 21520 1
23547 21467 21521 1
23548 21467 21522 1
23549 21472 21523 1
23550 21472 21524 1
23551 21473 21525 1
23552 21473 21526 1
23553 21474 21527 1
23554 21474 21528 1
23555 21482 21529 1
23556 21485 21530 1
23557 21491 21531 1
23558 21491 21532 1
23559 21492 21533 1
23560 21492 21534 1
23561 21493 21535 1
23562 21493 21536 1
23563 21494 21537 1
23564 21496 21538 1
23565 21497 21539 1
23566 21497 21540 1
23567 21500 21541 1
23568 21504 21542 1
23569 21506 21543 1
23570 21509 21544 1
23571 21510 21545 1
23572 21511 21546 1
23573 21512 21547 1
23574 21512 21548 1
23575 21512 21549 1
23576 21513 21550 1
23577 21514 21551 1
23578 21515 21552 1
23579 21515 21553 1
23580 21515 21554 1
23581 21516 21555 1
23582 21517 21556 1
23583 21518 21557 1
23584 21482 21558 1
23585 21485 21559 1
23586 21514 21560 1
23587 21561 21562 am
23588 21562 21563 am
23589 21563 21564 am
23590 21564 21565 am
23591 21565 21566 am
23592 21566 21561 am
23593 21567 21568 am
23594 21568 21569 1
23595 21563 21569 1
23596 21564 21567 1
23597 21570 21571 am
23598 21571 21572 am
23599 21572 21573 am
23600 21567 21573 am
23601 21568 21570 am
23602 21574 21575 1
23603 21575 21576 1
23604 21576 21577 1
23605 21572 21577 1
23606 21573 21574 1
23607 21578 21579 am
23608 21579 21580 am
23609 21571 21580 am
23610 21577 21578 am
23611 21581 21582 am
23612 21582 21583 am
23613 21570 21583 am
23614 21580 21581 am
23615 21584 21585 1
23616 21585 21586 am
23617 21586 21587 1
23618 21578 21587 1
23619 21579 21584 1
23620 21588 21589 am
23621 21589 21590 am
23622 21590 21591 am
23623 21585 21591 am
23624 21586 21588 am
23625 21592 21593 1
23626 21593 21594 1
23627 21594 21595 1
23628 21589 21595 1
23629 21590 21592 1
23630 21596 21597 am
23631 21597 21598 am
23632 21591 21596 am
23633 21592 21598 am
23634 21599 21600 1
23635 21600 21601 am
23636 21581 21601 am
23637 21582 21599 1
23638 21602 21603 am
23639 21603 21604 am
23640 21604 21605 am
23641 21600 21605 am
23642 21601 21602 am
23643 21606 21607 am
23644 21607 21608 am
23645 21608 21609 am
23646 21604 21609 am
23647 21605 21606 am
23648 21610 21611 am
23649 21611 21612 am
23650 21603 21612 am
23651 21609 21610 am
23652 21561 21613 1
23653 21566 21614 1
23654 21583 21615 1
23655 21607 21616 1
23656 21616 21617 1
23657 21597 21618 1
23658 21588 21619 1
23659 21610 21620 1
23660 21562 21621 1
23661 21565 21622 1
23662 21569 21623 1
23663 21569 21624 1
23664 21574 21625 1
23665 21574 21626 1
23666 21575 21627 1
23667 21575 21628 1
23668 21576 21629 1
23669 21576 21630 1
23670 21584 21631 1
23671 21587 21632 1
23672 21593 21633 1
23673 21593 21634 1
23674 21594 21635 1
23675 21594 21636 1
23676 21595 21637 1
23677 21595 21638 1
23678 21596 21639 1
23679 21598 21640 1
23680 21599 21641 1
23681 21599 21642 1
23682 21602 21643 1
23683 21606 21644 1
23684 21608 21645 1
23685 21611 21646 1
23686 21612 21647 1
23687 21613 21648 1
23688 21614 21649 1
23689 21614 21650 1
23690 21614 21651 1
23691 21615 21652 1
23692 21616 21653 1
23693 21617 21654 1
23694 21617 21655 1
23695 21617 21656 1
23696 21618 21657 1
23697 21619 21658 1
23698 21620 21659 1
23699 21584 21660 1
23700 21587 21661 1
23701 21616 21662 1
23702 21663 21664 am
23703 21664 21665 am
23704 21665 21666 am
23705 21666 21667 am
23706 21667 21668 am
23707 21668 21663 am
23708 21669 21670 am
23709 21670 21671 1
23710 21665 21671 1
23711 21666 21669 1
23712 21672 21673 am
23713 21673 21674 am
23714 21674 21675 am
23715 21669 21675 am
23716 21670 21672 am
23717 21676 21677 1
23718 21677 21678 1
23719 21678 21679 1
23720 21674 21679 1
23721 21675 21676 1
23722 21680 21681 am
23723 21681 21682 am
23724 21673 21682 am
23725 21679 21680 am
23726 21683 21684 am
23727 21684 21685 am
23728 21672 21685 am
23729 21682 21683 am
23730 21686 21687 1
23731 21687 21688 am
23732 21688 21689 1
23733 21680 21689 1
23734 21681 21686 1
23735 21690 21691 am
23736 21691 21692 am
23737 21692 21693 am
23738 21687 21693 am
23739 21688 21690 am
23740 21694 21695 1
23741 21695 21696 1
23742 21696 21697 1
23743 21691 21697 1
23744 21692 21694 1
23745 21698 21699 am
23746 21699 21700 am
23747 21693 21698 am
23748 21694 21700 am
23749 21701 21702 1
23750 21702 21703 am
23751 21683 21703 am
23752 21684 21701 1
23753 21704 21705 am
23754 21705 21706 am
23755 21706 21707 am
23756 21702 21707 am
23757 21703 21704 am
23758 21708 21709 am
23759 21709 21710 am
23760 21710 21711 am
23761 21706 21711 am
23762 21707 21708 am
23763 21712 21713 am
23764 21713 21714 am
23765 21705 21714 am
23766 21711 21712 am
23767 21663 21715 1
23768 21668 21716 1
23769 21685 21717 1
23770 21709 21718 1
23771 21718 21719 1
23772 21699 21720 1
23773 21690 21721 1
23774 21712 21722 1
23775 21664 21723 1
23776 21667 21724 1
23777 21671 21725 1
23778 21671 21726 1
23779 21676 21727 1
23780 21676 21728 1
23781 21677 21729 1
23782 21677 21730 1
23783 21678 21731 1
23784 21678 21732 1
23785 21686 21733 1
23786 21689 21734 1
23787 21695 21735 1
23788 21695 21736 1
23789 21696 21737 1
23790 21696 21738 1
23791 21697 21739 1
23792 21697 21740 1
23793 21698 21741 1
23794 21700 21742 1
23795 21701 21743 1
23796 21701 21744 1
23797 21704 21745 1
23798 21708 21746 1
23799 21710 21747 1
23800 21713 21748 1
23801 21714 21749 1
23802 21715 21750 1
23803 21716 21751 1
23804 21716 21752 1
23805 21716 21753 1
23806 21717 21754 1
23807 21718 21755 1
23808 21719 21756 1
23809 21719 21757 1
23810 21719 21758 1
23811 21720 21759 1
23812 21721 21760 1
23813 21722 21761 1
23814 21686 21762 1
23815 21689 21763 1
23816 21718 21764 1
23817 21765 21766 am
23818 21766 21767 am
23819 21767 21768 am
23820 21768 21769 am
23821 21769 21770 am
23822 21770 21765 am
23823 21771 21772 am
23824 21772 21773 1
23825 21767 21773 1
23826 21768 21771 1
23827 21774 21775 am
23828 21775 21776 am
23829 21776 21777 am
23830 21771 21777 am
23831 21772 21774 am
23832 21778 21779 1
23833 21779 21780 1
23834 21780 21781 1
23835 21776 21781 1
23836 21777 21778 1
23837 21782 21783 am
23838 21783 21784 am
23839 21775 21784 am
23840 21781 21782 am
23841 21785 21786 am
23842 21786 21787 am
23843 21774 21787 am
23844 21784 21785 am
23845 21788 21789 1
23846 21789 21790 am
23847 21790 21791 1
23848 21782 21791 1
23849 21783 21788 1
23850 21792 21793 am
23851 21793 21794 am
23852 21794 21795 am
23853 21789 21795 am
23854 21790 21792 am
23855 21796 21797 1
23856 21797 21798 1
23857 21798 21799 1
23858 21793 21799 1
23859 21794 21796 1
23860 21800 21801 am
23861 21801 21802 am
23862 21795 21800 am
23863 21796 21802 am
23864 21803 21804 1
23865 21804 21805 am
23866 21785 21805 am
23867 21786 21803 1
23868 21806 21807 am
23869 21807 21808 am
23870 21808 21809 am
23871 21804 21809 am
23872 21805 21806 am
23873 21810 21811 am
23874 21811 21812 am
23875 21812 21813 am
23876 21808 21813 am
23877 21809 21810 am
23878 21814 21815 am
23879 21815 21816 am
23880 21807 21816 am
23881 21813 21814 am
23882 21765 21817 1
23883 21770 21818 1
23884 21787 21819 1
23885 21811 21820 1
23886 21820 21821 1
23887 21801 21822 1
23888 21792 21823 1
23889 21814 21824 1
23890 21766 21825 1
23891 21769 21826 1
23892 21773 21827 1
23893 21773 21828 1
23894 21778 21829 1
23895 21778 21830 1
23896 21779 21831 1
23897 21779 21832 1
23898 21780 21833 1
23899 21780 21834 1
23900 21788 21835 1
23901 21791 21836 1
23902 21797 21837 1
23903 21797 21838 1
23904 21798 21839 1
23905 21798 21840 1
23906 21799 21841 1
23907 21799 21842 1
23908 21800 21843 1
23909 21802 21844 1
23910 21803 21845 1
23911 21803 21846 1
23912 21806 21847 1
23913 21810 21848 1
23914 21812 21849 1
23915 21815 21850 1
23916 21816 21851 1
23917 21817 21852 1
23918 21818 21853 1
23919 21818 21854 1
23920 21818 21855 1
23921 21819 21856 1
23922 21820 21857 1
23923 21821 21858 1
23924 21821 21859 1
23925 21821 21860 1
23926 21822 21861 1
23927 21823 21862 1
23928 21824 21863 1
23929 21788 21864 1
23930 21791 21865 1
23931 21820 21866 1
23932 21867 21868 am
23933 21868 21869 am
23934 21869 21870 am
23935 21870 21871 am
23936 21871 21872 am
23937 21872 21867 am
23938 21873 21874 am
23939 21874 21875 1
23940 21869 21875 1
23941 21870 21873 1
23942 21876 21877 am
23943 21877 21878 am
23944 21878 21879 am
23945 21873 21879 am
23946 21874 21876 am
23947 21880 21881 1
23948 21881 21882 1
23949 21882 21883 1
23950 21878 21883 1
23951 21879 21880 1
23952 21884 21885 am
23953 21885 21886 am
23954 21877 21886 am
23955 21883 21884 am
23956 21887 21888 am
23957 21888 21889 am
23958 21876 21889 am
23959 21886 21887 am
23960 21890 21891 1
23961 21891 21892 am
23962 21892 21893 1
23963 21884 21893 1
23964 21885 21890 1
23965 21894 21895 am
23966 21895 21896 am
23967 21896 21897 am
23968 21891 21897 am
23969 21892 21894 am
23970 21898 21899 1
23971 21899 21900 1
23972 21900 21901 1
23973 21895 21901 1
23974 21896 21898 1
23975 21902 21903 am
23976 21903 21904 am
23977 21897 21902 am
23978 21898 21904 am
23979 21905 21906 1
23980 21906 21907 am
23981 21887 21907 am
23982 21888 21905 1
23983 21908 21909 am
23984 21909 21910 am
23985 21910 21911 am
23986 21906 21911 am
23987 21907 21908 am
23988 21912 21913 am
23989 21913 21914 am
23990 21914 21915 am
23991 21910 21915 am
23992 21911 21912 am
23993 21916 21917 am
23994 21917 21918 am
23995 21909 21918 am
23996 21915 21916 am
23997 21867 21919 1
23998 21872 21920 1
23999 21889 21921 1
24000 21913 21922 1
24001 21922 21923 1
24002 21903 21924 1
24003 21894 21925 1
24004 21916 21926 1
24005 21868 21927 1
24006 21871 21928 1
24007 21875 21929 1
24008 21875 21930 1
24009 21880 21931 1
24010 21880 21932 1
24011 21881 21933 1
24012 21881 21934 1
24013 21882 21935 1
24014 21882 21936 1
24015 21890 21937 1
24016 21893 21938 1
24017 21899 21939 1
24018 21899 21940 1
24019 21900 21941 1
24020 21900 21942 1
24021 21901 21943 1
24022 21901 21944 1
24023 21902 21945 1
24024 21904 21946 1
24025 21905 21947 1
24026 21905 21948 1
24027 21908 21949 1
24028 21912 21950 1
24029 21914 21951 1
24030 21917 21952 1
24031 21918 21953 1
24032 21919 21954 1
24033 21920 21955 1
24034 21920 21956 1
24035 21920 21957 1
24036 21921 21958 1
24037 21922 21959 1
24038 21923 21960 1
24039 21923 21961 1
24040 21923 21962 1
24041 21924 21963 1
24042 21925 21964 1
24043 21926 21965 1
24044 21890 21966 1
24045 21893 21967 1
24046 21922 21968 1
24047 21969 21970 am
24048 21970 21971 am
24049 21971 21972 am
24050 21972 21973 am
24051 21973 21974 am
24052 21974 21969 am
24053 21975 21976 am
24054 21976 21977 1
24055 21971 21977 1
24056 21972 21975 1
24057 21978 21979 am
24058 21979 21980 am
24059 21980 21981 am
24060 21975 21981 am
24061 21976 21978 am
24062 21982 21983 1
24063 21983 21984 1
24064 21984 21985 1
24065 21980 21985 1
24066 21981 21982 1
24067 21986 21987 am
24068 21987 21988 am
24069 21979 21988 am
24070 21985 21986 am
24071 21989 21990 am
24072 21990 21991 am
24073 21978 21991 am
24074 21988 21989 am
24075 21992 21993 1
24076 21993 21994 am
24077 21994 21995 1
24078 21986 21995 1
24079 21987 21992 1
24080 21996 21997 am
24081 21997 21998 am
24082 21998 21999 am
24083 21993 21999 am
24084 21994 21996 am
24085 22000 22001 1
24086 22001 22002 1
24087 22002 22003 1
24088 21997 22003 1
24089 21998 22000 1
24090 22004 22005 am
24091 22005 22006 am
24092 21999 22004 am
24093 22000 22006 am
24094 22007 22008 1
24095 22008 22009 am
24096 21989 22009 am
24097 21990 22007 1
24098 22010 22011 am
24099 22011 22012 am
24100 22012 22013 am
24101 22008 22013 am
24102 22009 22010 am
24103 22014 22015 am
24104 22015 22016 am
24105 22016 22017 am
24106 22012 22017 am
24107 22013 22014 am
24108 22018 22019 am
24109 22019 22020 am
24110 22011 22020 am
24111 22017 22018 am
24112 21969 22021 1
24113 21974 22022 1
24114 21991 22023 1
24115 22015 22024 1
24116 22024 22025 1
24117 22005 22026 1
24118 21996 22027 1
24119 22018 22028 1
24120 21970 22029 1
24121 21973 22030 1
24122 21977 22031 1
24123 21977 22032 1
24124 21982 22033 1
24125 21982 22034 1
24126 21983 22035 1
24127 21983 22036 1
24128 21984 22037 1
24129 21984 22038 1
24130 21992 22039 1
24131 21995 22040 1
24132 22001 22041 1
24133 22001 22042 1
24134 22002 22043 1
24135 22002 22044 1
24136 22003 22045 1
24137 22003 22046 1
24138 22004 22047 1
24139 22006 22048 1
24140 22007 22049 1
24141 22007 22050 1
24142 22010 22051 1
24143 22014 22052 1
24144 22016 22053 1
24145 22019 22054 1
24146 22020 22055 1
24147 22021 22056 1
24148 22022 22057 1
24149 22022 22058 1
24150 22022 22059 1
24151 22023 22060 1
24152 22024 22061 1
24153 22025 22062 1
24154 22025 22063 1
24155 22025 22064 1
24156 22026 22065 1
24157 22027 22066 1
24158 22028 22067 1
24159 21992 22068 1
24160 21995 22069 1
24161 22024 22070 1
24162 22071 22072 am
24163 22072 22073 am
24164 22073 22074 am
24165 22074 22075 am
24166 22075 22076 am
24167 22076 22071 am
24168 22077 22078 am
24169 22078 22079 1
24170 22073 22079 1
24171 22074 22077 1
24172 22080 22081 am
24173 22081 22082 am
24174 22082 22083 am
24175 22077 22083 am
24176 22078 22080 am
24177 22084 22085 1
24178 22085 22086 1
24179 22086 22087 1
24180 22082 22087 1
24181 22083 22084 1
24182 22088 22089 am
24183 22089 22090 am
24184 22081 22090 am
24185 22087 22088 am
24186 22091 22092 am
24187 22092 22093 am
24188 22080 22093 am
24189 22090 22091 am
24190 22094 22095 1
24191 22095 22096 am
24192 22096 22097 1
24193 22088 22097 1
24194 22089 22094 1
24195 22098 22099 am
24196 22099 22100 am
24197 22100 22101 am
24198 22095 22101 am
24199 22096 22098 am
24200 22102 22103 1
24201 22103 22104 1
24202 22104 22105 1
24203 22099 22105 1
24204 22100 22102 1
24205 22106 22107 am
24206 22107 22108 am
24207 22101 22106 am
24208 22102 22108 am
24209 22109 22110 1
24210 22110 22111 am
24211 22091 22111 am
24212 22092 22109 1
24213 22112 22113 am
24214 22113 22114 am
24215 22114 22115 am
24216 22110 22115 am
24217 22111 22112 am
24218 22116 22117 am
24219 22117 22118 am
24220 22118 22119 am
24221 22114 22119 am
24222 22115 22116 am
24223 22120 22121 am
24224 22121 22122 am
24225 22113 22122 am
24226 22119 22120 am
24227 22071 22123 1
24228 22076 22124 1
24229 22093 22125 1
24230 22117 22126 1
24231 22126 22127 1
24232 22107 22128 1
24233 22098 22129 1
24234 22120 22130 1
24235 22072 22131 1
24236 22075 22132 1
24237 22079 22133 1
24238 22079 22134 1
24239 22084 22135 1
24240 22084 22136 1
24241 22085 22137 1
24242 22085 22138 1
24243 22086 22139 1
24244 22086 22140 1
24245 22094 22141 1
24246 22097 22142 1
24247 22103 22143 1
24248 22103 22144 1
24249 22104 22145 1
24250 22104 22146 1
24251 22105 22147 1
24252 22105 22148 1
24253 22106 22149 1
24254 22108 22150 1
24255 22109 22151 1
24256 22109 22152 1
24257 22112 22153 1
24258 22116 22154 1
24259 22118 22155 1
24260 22121 22156 1
24261 22122 22157 1
24262 22123 22158 1
24263 22124 22159 1
24264 22124 22160 1
24265 22124 22161 1
24266 22125 22162 1
24267 22126 22163 1
24268 22127 22164 1
24269 22127 22165 1
24270 22127 22166 1
24271 22128 22167 1
24272 22129 22168 1
24273 22130 22169 1
24274 22094 22170 1
24275 22097 22171 1
24276 22126 22172 1
24277 22173 22174 am
24278 22174 22175 am
24279 22175 22176 am
24280 22176 22177 am
24281 22177 22178 am
24282 22178 22173 am
24283 22179 22180 am
24284 22180 22181 1
24285 22175 22181 1
24286 22176 22179 1
24287 22182 22183 am
24288 22183 22184 am
24289 22184 22185 am
24290 22179 22185 am
24291 22180 22182 am
24292 22186 22187 1
24293 22187 22188 1
24294 22188 22189 1
24295 22184 22189 1
24296 22185 22186 1
24297 22190 22191 am
24298 22191 22192 am
24299 22183 22192 am
24300 22189 22190 am
24301 22193 22194 am
24302 22194 22195 am
24303 22182 22195 am
24304 22192 22193 am
24305 22196 22197 1
24306 22197 22198 am
24307 22198 22199 1
24308 22190 22199 1
24309 22191 22196 1
24310 22200 22201 am
24311 22201 22202 am
24312 22202 22203 am
24313 22197 22203 am
24314 22198 22200 am
24315 22204 22205 1
24316 22205 22206 1
24317 22206 22207 1
24318 22201 22207 1
24319 22202 22204 1
24320 22208 22209 am
24321 22209 22210 am
24322 22203 22208 am
24323 22204 22210 am
24324 22211 22212 1
24325 22212 22213 am
24326 22193 22213 am
24327 22194 22211 1
24328 22214 22215 am
24329 22215 22216 am
24330 22216 22217 am
24331 22212 22217 am
24332 22213 22214 am
24333 22218 22219 am
24334 22219 22220 am
24335 22220 22221 am
24336 22216 22221 am
24337 22217 22218 am
24338 22222 22223 am
24339 22223 22224 am
24340 22215 22224 am
24341 22221 22222 am
24342 22173 22225 1
24343 22178 22226 1
24344 22195 22227 1
24345 22219 22228 1
24346 22228 22229 1
24347 22209 22230 1
24348 22200 22231 1
24349 22222 22232 1
24350 22174 22233 1
24351 22177 22234 1
24352 22181 22235 1
24353 22181 22236 1
24354 22186 22237 1
24355 22186 22238 1
24356 22187 22239 1
24357 22187 22240 1
24358 22188 22241 1
24359 22188 22242 1
24360 22196 22243 1
24361 22199 22244 1
24362 22205 22245 1
24363 22205 22246 1
24364 22206 22247 1
24365 22206 22248 1
24366 22207 22249 1
24367 22207 22250 1
24368 22208 22251 1
24369 22210 22252 1
24370 22211 22253 1
24371 22211 22254 1
24372 22214 22255 1
24373 22218 22256 1
24374 22220 22257 1
24375 22223 22258 1
24376 22224 22259 1
24377 22225 22260 1
24378 22226 22261 1
24379 22226 22262 1
24380 22226 22263 1
24381 22227 22264 1
24382 22228 22265 1
24383 22229 22266 1
24384 22229 22267 1
24385 22229 22268 1
24386 22230 22269 1
24387 22231 22270 1
24388 22232 22271 1
24389 22196 22272 1
24390 22199 22273 1
24391 22228 22274 1
24392 22275 22276 am
24393 22276 22277 am
24394 22277 22278 am
24395 22278 22279 am
24396 22279 22280 am
24397 22280 22275 am
24398 22281 22282 am
24399 22282 22283 1
24400 22277 22283 1
24401 22278 22281 1
24402 22284 22285 am
24403 22285 22286 am
24404 22286 22287 am
24405 22281 22287 am
24406 22282 22284 am
24407 22288 22289 1
24408 22289 22290 1
24409 22290 22291 1
24410 22286 22291 1
24411 22287 22288 1
24412 22292 22293 am
24413 22293 22294 am
24414 22285 22294 am
24415 22291 22292 am
24416 22295 22296 am
24417 22296 22297 am
24418 22284 22297 am
24419 22294 22295 am
24420 22298 22299 1
24421 22299 22300 am
24422 22300 22301 1
24423 22292 22301 1
24424 22293 22298 1
24425 22302 22303 am
24426 22303 22304 am
24427 22304 22305 am
24428 22299 22305 am
24429 22300 22302 am
24430 22306 22307 1
24431 22307 22308 1
24432 22308 22309 1
24433 22303 22309 1
24434 22304 22306 1
24435 22310 22311 am
24436 22311 22312 am
24437 22305 22310 am
24438 22306 22312 am
24439 22313 22314 1
24440 22314 22315 am
24441 22295 22315 am
24442 22296 22313 1
24443 22316 22317 am
24444 22317 22318 am
24445 22318 22319 am
24446 22314 22319 am
24447 22315 22316 am
24448 22320 22321 am
24449 22321 22322 am
24450 22322 22323 am
24451 22318 22323 am
24452 22319 22320 am
24453 22324 22325 am
24454 22325 22326 am
24455 22317 22326 am
24456 22323 22324 am
24457 22275 22327 1
24458 22280 22328 1
24459 22297 22329 1
24460 22321 22330 1
24461 22330 22331 1
24462 22311 22332 1
24463 22302 22333 1
24464 22324 22334 1
24465 22276 22335 1
24466 22279 22336 1
24467 22283 22337 1
24468 22283 22338 1
24469 22288 22339 1
24470 22288 22340 1
24471 22289 22341 1
24472 22289 22342 1
24473 22290 22343 1
24474 22290 22344 1
24475 22298 22345 1
24476 22301 22346 1
24477 22307 22347 1
24478 22307 22348 1
24479 22308 22349 1
24480 22308 22350 1
24481 22309 22351 1
24482 22309 22352 1
24483 22310 22353 1
24484 22312 22354 1
24485 22313 22355 1
24486 22313 22356 1
24487 22316 22357 1
24488 22320 22358 1
24489 22322 22359 1
24490 22325 22360 1
24491 22326 22361 1
24492 22327 22362 1
24493 22328 22363 1
24494 22328 22364 1
24495 22328 22365 1
24496 22329 22366 1
24497 22330 22367 1
24498 22331 22368 1
24499 22331 22369 1
24500 22331 22370 1
24501 22332 22371 1
24502 22333 22372 1
24503 22334 22373 1
24504 22298 22374 1
24505 22301 22375 1
24506 22330 22376 1
24507 22377 22378 am
24508 22378 22379 am
24509 22379 22380 am
24510 22380 22381 am
24511 22381 22382 am
24512 22382 22377 am
24513 22383 22384 am
24514 22384 22385 1
24515 22379 22385 1
24516 22380 22383 1
24517 22386 22387 am
24518 22387 22388 am
24519 22388 22389 am
24520 22383 22389 am
24521 22384 22386 am
24522 22390 22391 1
24523 22391 22392 1
24524 22392 22393 1
24525 22388 22393 1
24526 22389 22390 1
24527 22394 22395 am
24528 22395 22396 am
24529 22387 22396 am
24530 22393 22394 am
24531 22397 22398 am
24532 22398 22399 am
24533 22386 22399 am
24534 22396 22397 am
24535 22400 22401 1
24536 22401 22402 am
24537 22402 22403 1
24538 22394 22403 1
24539 22395 22400 1
24540 22404 22405 am
24541 22405 22406 am
24542 22406 22407 am
24543 22401 22407 am
24544 22402 22404 am
24545 22408 22409 1
24546 22409 22410 1
24547 22410 22411 1
24548 22405 22411 1
24549 22406 22408 1
24550 22412 22413 am
24551 22413 22414 am
24552 22407 22412 am
24553 22408 22414 am
24554 22415 22416 1
24555 22416 22417 am
24556 22397 22417 am
24557 22398 22415 1
24558 22418 22419 am
24559 22419 22420 am
24560 22420 22421 am
24561 22416 22421 am
24562 22417 22418 am
24563 22422 22423 am
24564 22423 22424 am
24565 22424 22425 am
24566 22420 22425 am
24567 22421 22422 am
24568 22426 22427 am
24569 22427 22428 am
24570 22419 22428 am
24571 22425 22426 am
24572 22377 22429 1
24573 22382 22430 1
24574 22399 22431 1
24575 22423 22432 1
24576 22432 22433 1
24577 22413 22434 1
24578 22404 22435 1
24579 22426 22436 1
24580 22378 22437 1
24581 22381 22438 1
24582 22385 22439 1
24583 22385 22440 1
24584 22390 22441 1
24585 22390 22442 1
24586 22391 22443 1
24587 22391 22444 1
24588 22392 22445 1
24589 22392 22446 1
24590 22400 22447 1
24591 22403 22448 1
24592 22409 22449 1
24593 22409 22450 1
24594 22410 22451 1
24595 22410 22452 1
24596 22411 22453 1
24597 22411 22454 1
24598 22412 22455 1
24599 22414 22456 1
24600 22415 22457 1
24601 22415 22458 1
24602 22418 22459 1
24603 22422 22460 1
24604 22424 22461 1
24605 22427 22462 1
24606 22428 22463 1
24607 22429 22464 1
24608 22430 22465 1
24609 22430 22466 1
24610 22430 22467 1
24611 22431 22468 1
24612 22432 22469 1
24613 22433 22470 1
24614 22433 22471 1
24615 22433 22472 1
24616 22434 22473 1
24617 22435 22474 1
24618 22436 22475 1
24619 22400 22476 1
24620 22403 22477 1
24621 22432 22478 1
24622 22479 22480 am
24623 22480 22481 am
24624 22481 22482 am
24625 22482 22483 am
24626 22483 22484 am
24627 22484 22479 am
24628 22485 22486 am
24629 22486 22487 1
24630 22481 22487 1
24631 22482 22485 1
24632 22488 22489 am
24633 22489 22490 am
24634 22490 22491 am
24635 22485 22491 am
24636 22486 22488 am
24637 22492 22493 1
24638 22493 22494 1
24639 22494 22495 1
24640 22490 22495 1
24641 22491 22492 1
24642 22496 22497 am
24643 22497 22498 am
24644 22489 22498 am
24645 22495 22496 am
24646 22499 22500 am
24647 22500 22501 am
24648 22488 22501 am
24649 22498 22499 am
24650 22502 22503 1
24651 22503 22504 am
24652 22504 22505 1
24653 22496 22505 1
24654 22497 22502 1
24655 22506 22507 am
24656 22507 22508 am
24657 22508 22509 am
24658 22503 22509 am
24659 22504 22506 am
24660 22510 22511 1
24661 22511 22512 1
24662 22512 22513 1
24663 22507 22513 1
24664 22508 22510 1
24665 22514 22515 am
24666 22515 22516 am
24667 22509 22514 am
24668 22510 22516 am
24669 22517 22518 1
24670 22518 22519 am
24671 22499 22519 am
24672 22500 22517 1
24673 22520 22521 am
24674 22521 22522 am
24675 22522 22523 am
24676 22518 22523 am
24677 22519 22520 am
24678 22524 22525 am
24679 22525 22526 am
24680 22526 22527 am
24681 22522 22527 am
24682 22523 22524 am
24683 22528 22529 am
24684 22529 22530 am
24685 22521 22530 am
24686 22527 22528 am
24687 22479 22531 1
24688 22484 22532 1
24689 22501 22533 1
24690 22525 22534 1
24691 22534 22535 1
24692 22515 22536 1
24693 22506 22537 1
24694 22528 22538 1
24695 22480 22539 1
24696 22483 22540 1
24697 22487 22541 1
24698 22487 22542 1
24699 22492 22543 1
24700 22492 22544 1
24701 22493 22545 1
24702 22493 22546 1
24703 22494 22547 1
24704 22494 22548 1
24705 22502 22549 1
24706 22505 22550 1
24707 22511 22551 1
24708 22511 22552 1
24709 22512 22553 1
24710 22512 22554 1
24711 22513 22555 1
24712 22513 22556 1
24713 22514 22557 1
24714 22516 22558 1
24715 22517 22559 1
24716 22517 22560 1
24717 22520 22561 1
24718 22524 22562 1
24719 22526 22563 1
24720 22529 22564 1
24721 22530 22565 1
24722 22531 22566 1
24723 22532 22567 1
24724 22532 22568 1
24725 22532 22569 1
24726 22533 22570 1
24727 22534 22571 1
24728 22535 22572 1
24729 22535 22573 1
24730 22535 22574 1
24731 22536 22575 1
24732 22537 22576 1
24733 22538 22577 1
24734 22502 22578 1
24735 22505 22579 1
24736 22534 22580 1
24737 22581 22582 am
24738 22582 22583 am
24739 22583 22584 am
24740 22584 22585 am
24741 22585 22586 am
24742 22586 22581 am
24743 22587 22588 am
24744 22588 22589 1
24745 22583 22589 1
24746 22584 22587 1
24747 22590 22591 am
24748 22591 22592 am
24749 22592 22593 am
24750 22587 22593 am
24751 22588 22590 am
24752 22594 22595 1
24753 22595 22596 1
24754 22596 22597 1
24755 22592 22597 1
24756 22593 22594 1
24757 22598 22599 am
24758 22599 22600 am
24759 22591 22600 am
24760 22597 22598 am
24761 22601 22602 am
24762 22602 22603 am
24763 22590 22603 am
24764 22600 22601 am
24765 22604 22605 1
24766 22605 22606 am
24767 22606 22607 1
24768 22598 22607 1
24769 22599 22604 1
24770 22608 22609 am
24771 22609 22610 am
24772 22610 22611 am
24773 22605 22611 am
24774 22606 22608 am
24775 22612 22613 1
24776 22613 22614 1
24777 22614 22615 1
24778 22609 22615 1
24779 22610 22612 1
24780 22616 22617 am
24781 22617 22618 am
24782 22611 22616 am
24783 22612 22618 am
24784 22619 22620 1
24785 22620 22621 am
24786 22601 22621 am
24787 22602 22619 1
24788 22622 22623 am
24789 22623 22624 am
24790 22624 22625 am
24791 22620 22625 am
24792 22621 22622 am
24793 22626 22627 am
24794 22627 22628 am
24795 22628 22629 am
24796 22624 22629 am
24797 22625 22626 am
24798 22630 22631 am
24799 22631 22632 am
24800 22623 22632 am
24801 22629 22630 am
24802 22581 22633 1
24803 22586 22634 1
24804 22603 22635 1
24805 22627 22636 1
24806 22636 22637 1
24807 22617 22638 1
24808 22608 22639 1
24809 22630 22640 1
24810 22582 22641 1
24811 22585 22642 1
24812 22589 22643 1
24813 22589 22644 1
24814 22594 22645 1
24815 22594 22646 1
24816 22595 22647 1
24817 22595 22648 1
24818 22596 22649 1
24819 22596 22650 1
24820 22604 22651 1
24821 22607 22652 1
24822 22613 22653 1
24823 22613 22654 1
24824 22614 22655 1
24825 22614 22656 1
24826 22615 22657 1
24827 22615 22658 1
24828 22616 22659 1
24829 22618 22660 1
24830 22619 22661 1
24831 22619 22662 1
24832 22622 22663 1
24833 22626 22664 1
24834 22628 22665 1
24835 22631 22666 1
24836 22632 22667 1
24837 22633 22668 1
24838 22634 22669 1
24839 22634 22670 1
24840 22634 22671 1
24841 22635 22672 1
24842 22636 22673 1
24843 22637 22674 1
24844 22637 22675 1
24845 22637 22676 1
24846 22638 22677 1
24847 22639 22678 1
24848 22640 22679 1
24849 22604 22680 1
24850 22607 22681 1
24851 22636 22682 1
24852 22683 22684 am
24853 22684 22685 am
24854 22685 22686 am
24855 22686 22687 am
24856 22687 22688 am
24857 22688 22683 am
24858 22689 22690 am
24859 22690 22691 1
24860 22685 22691 1
24861 22686 22689 1
24862 22692 22693 am
24863 22693 22694 am
24864 22694 22695 am
24865 22689 22695 am
24866 22690 22692 am
24867 22696 22697 1
24868 22697 22698 1
24869 22698 22699 1
24870 22694 22699 1
24871 22695 22696 1
24872 22700 22701 am
24873 22701 22702 am
24874 22693 22702 am
24875 22699 22700 am
24876 22703 22704 am
24877 22704 22705 am
24878 22692 22705 am
24879 22702 22703 am
24880 22706 22707 1
24881 22707 22708 am
24882 22708 22709 1
24883 22700 22709 1
24884 22701 22706 1
24885 22710 22711 am
24886 22711 22712 am
24887 22712 22713 am
24888 22707 22713 am
24889 22708 22710 am
24890 22714 22715 1
24891 22715 22716 1
24892 22716 22717 1
24893 22711 22717 1
24894 22712 22714 1
24895 22718 22719 am
24896 22719 22720 am
24897 22713 22718 am
24898 22714 22720 am
24899 22721 22722 1
24900 22722 22723 am
24901 22703 22723 am
24902 22704 22721 1
24903 22724 22725 am
24904 22725 22726 am
24905 22726 22727 am
24906 22722 22727 am
24907 22723 22724 am
24908 22728 22729 am
24909 22729 22730 am
24910 22730 22731 am
24911 22726 22731 am
24912 22727 22728 am
24913 22732 22733 am
24914 22733 22734 am
24915 22725 22734 am
24916 22731 22732 am
24917 22683 22735 1
24918 22688 22736 1
24919 22705 22737 1
24920 22729 22738 1
24921 22738 22739 1
24922 22719 22740 1
24923 22710 22741 1
24924 22732 22742 1
24925 22684 22743 1
24926 22687 22744 1
24927 22691 22745 1
24928 22691 22746 1
24929 22696 22747 1
24930 22696 22748 1
24931 22697 22749 1
24932 22697 22750 1
24933 22698 22751 1
24934 22698 22752 1
24935 22706 22753 1
24936 22709 22754 1
24937 22715 22755 1
24938 22715 22756 1
24939 22716 22757 1
24940 22716 22758 1
24941 22717 22759 1
24942 22717 22760 1
24943 22718 22761 1
24944 22720 22762 1
24945 22721 22763 1
24946 22721 22764 1
24947 22724 22765 1
24948 22728 22766 1
24949 22730 22767 1
24950 22733 22768 1
24951 22734 22769 1
24952 22735 22770 1
24953 22736 22771 1
24954 22736 22772 1
24955 22736 22773 1
24956 22737 22774 1
24957 22738 22775 1
24958 22739 22776 1
24959 22739 22777 1
24960 22739 22778 1
24961 22740 22779 1
24962 22741 22780 1
24963 22742 22781 1
24964 22706 22782 1
24965 22709 22783 1
24966 22738 22784 1
24967 22785 22786 am
24968 22786 22787 am
24969 22787 22788 am
24970 22788 22789 am
24971 22789 22790 am
24972 22790 22785 am
24973 22791 22792 am
24974 22792 22793 1
24975 22787 22793 1
24976 22788 22791 1
24977 22794 22795 am
24978 22795 22796 am
24979 22796 22797 am
24980 22791 22797 am
24981 22792 22794 am
24982 22798 22799 1
24983 22799 22800 1
24984 22800 22801 1
24985 22796 22801 1
24986 22797 22798 1
24987 22802 22803 am
24988 22803 22804 am
24989 22795 22804 am
24990 22801 22802 am
24991 22805 22806 am
24992 22806 22807 am
24993 22794 22807 am
24994 22804 22805 am
24995 22808 22809 1
24996 22809 22810 am
24997 22810 22811 1
24998 22802 22811 1
24999 22803 22808 1
25000 22812 22813 am
25001 22813 22814 am
25002 22814 22815 am
25003 22809 22815 am
25004 22810 22812 am
25005 22816 22817 1
25006 22817 22818 1
25007 22818 22819 1
25008 22813 22819 1
25009 22814 22816 1
25010 22820 22821 am
25011 22821 22822 am
25012 22815 22820 am
25013 22816 22822 am
25014 22823 22824 1
25015 22824 22825 am
25016 22805 22825 am
25017 22806 22823 1
25018 22826 22827 am
25019 22827 22828 am
25020 22828 22829 am
25021 22824 22829 am
25022 22825 22826 am
25023 22830 22831 am
25024 22831 22832 am
25025 22832 22833 am
25026 22828 22833 am
25027 22829 22830 am
25028 22834 22835 am
25029 22835 22836 am
25030 22827 22836 am
25031 22833 22834 am
25032 22785 22837 1
25033 22790 22838 1
25034 22807 22839 1
25035 22831 22840 1
25036 22840 22841 1
25037 22821 22842 1
25038 22812 22843 1
25039 22834 22844 1
25040 22786 22845 1
25041 22789 22846 1
25042 22793 22847 1
25043 22793 22848 1
25044 22798 22849 1
25045 22798 22850 1
25046 22799 22851 1
25047 22799 22852 1
25048 22800 22853 1
25049 22800 22854 1
25050 22808 22855 1
25051 22811 22856 1
25052 22817 22857 1
25053 22817 22858 1
25054 22818 22859 1
25055 22818 22860 1
25056 22819 22861 1
25057 22819 22862 1
25058 22820 22863 1
25059 22822 22864 1
25060 22823 22865 1
25061 22823 22866 1
25062 22826 22867 1
25063 22830 22868 1
25064 22832 22869 1
25065 22835 22870 1
25066 22836 22871 1
25067 22837 22872 1
25068 22838 22873 1
25069 22838 22874 1
25070 22838 22875 1
25071 22839 22876 1
25072 22840 22877 1
25073 22841 22878 1
25074 22841 22879 1
25075 22841 22880 1
25076 22842 22881 1
25077 22843 22882 1
25078 22844 22883 1
25079 22808 22884 1
25080 22811 22885 1
25081 22840 22886 1
25082 22887 22888 am
25083 22888 22889 am
25084 22889 22890 am
25085 22890 22891 am
25086 22891 22892 am
25087 22892 22887 am
25088 22893 22894 am
25089 22894 22895 1
25090 22889 22895 1
25091 22890 22893 1
25092 22896 22897 am
25093 22897 22898 am
25094 22898 22899 am
25095 22893 22899 am
25096 22894 22896 am
25097 22900 22901 1
25098 22901 22902 1
25099 22902 22903 1
25100 22898 22903 1
25101 22899 22900 1
25102 22904 22905 am
25103 22905 22906 am
25104 22897 22906 am
25105 22903 22904 am
25106 22907 22908 am
25107 22908 22909 am
25108 22896 22909 am
25109 22906 22907 am
25110 22910 22911 1
25111 22911 22912 am
25112 22912 22913 1
25113 22904 22913 1
25114 22905 22910 1
25115 22914 22915 am
25116 22915 22916 am
25117 22916 22917 am
25118 22911 22917 am
25119 22912 22914 am
25120 22918 22919 1
25121 22919 22920 1
25122 22920 22921 1
25123 22915 22921 1
25124 22916 22918 1
25125 22922 22923 am
25126 22923 22924 am
25127 22917 22922 am
25128 22918 22924 am
25129 22925 22926 1
25130 22926 22927 am
25131 22907 22927 am
25132 22908 22925 1
25133 22928 22929 am
25134 22929 22930 am
25135 22930 22931 am
25136 22926 22931 am
25137 22927 22928 am
25138 22932 22933 am
25139 22933 22934 am
25140 22934 22935 am
25141 22930 22935 am
25142 22931 22932 am
25143 22936 22937 am
25144 22937 22938 am
25145 22929 22938 am
25146 22935 22936 am
25147 22887 22939 1
25148 22892 22940 1
25149 22909 22941 1
25150 22933 22942 1
25151 22942 22943 1
25152 22923 22944 1
25153 22914 22945 1
25154 22936 22946 1
25155 22888 22947 1
25156 22891 22948 1
25157 22895 22949 1
25158 22895 22950 1
25159 22900 22951 1
25160 22900 22952 1
25161 22901 22953 1
25162 22901 22954 1
25163 22902 22955 1
25164 22902 22956 1
25165 22910 22957 1
25166 22913 22958 1
25167 22919 22959 1
25168 22919 22960 1
25169 22920 22961 1
25170 22920 22962 1
25171 22921 22963 1
25172 22921 22964 1
25173 22922 22965 1
25174 22924 22966 1
25175 22925 22967 1
25176 22925 22968 1
25177 22928 22969 1
25178 22932 22970 1
25179 22934 22971 1
25180 22937 22972 1
25181 22938 22973 1
25182 22939 22974 1
25183 22940 22975 1
25184 22940 22976 1
25185 22940 22977 1
25186 22941 22978 1
25187 22942 22979 1
25188 22943 22980 1
25189 22943 22981 1
25190 22943 22982 1
25191 22944 22983 1
25192 22945 22984 1
25193 22946 22985 1
25194 22910 22986 1
25195 22913 22987 1
25196 22942 22988 1
25197 22989 22990 am
25198 22990 22991 am
25199 22991 22992 am
25200 22992 22993 am
25201 22993 22994 am
25202 22994 22989 am
25203 22995 22996 am
25204 22996 22997 1
25205 22991 22997 1
25206 22992 22995 1
25207 22998 22999 am
25208 22999 23000 am
25209 23000 23001 am
25210 22995 23001 am
25211 22996 22998 am
25212 23002 23003 1
25213 23003 23004 1
25214 23004 23005 1
25215 23000 23005 1
25216 23001 23002 1
25217 23006 23007 am
25218 23007 23008 am
25219 22999 23008 am
25220 23005 23006 am
25221 23009 23010 am
25222 23010 23011 am
25223 22998 23011 am
25224 23008 23009 am
25225 23012 23013 1
25226 23013 23014 am
25227 23014 23015 1
25228 23006 23015 1
25229 23007 23012 1
25230 23016 23017 am
25231 23017 23018 am
25232 23018 23019 am
25233 23013 23019 am
25234 23014 23016 am
25235 23020 23021 1
25236 23021 23022 1
25237 23022 23023 1
25238 23017 23023 1
25239 23018 23020 1
25240 23024 23025 am
25241 23025 23026 am
25242 23019 23024 am
25243 23020 23026 am
25244 23027 23028 1
25245 23028 23029 am
25246 23009 23029 am
25247 23010 23027 1
25248 23030 23031 am
25249 23031 23032 am
25250 23032 23033 am
25251 23028 23033 am
25252 23029 23030 am
25253 23034 23035 am
25254 23035 23036 am
25255 23036 23037 am
25256 23032 23037 am
25257 23033 23034 am
25258 23038 23039 am
25259 23039 23040 am
25260 23031 23040 am
25261 23037 23038 am
25262 22989 23041 1
25263 22994 23042 1
25264 23011 23043 1
25265 23035 23044 1
25266 23044 23045 1
25267 23025 23046 1
25268 23016 23047 1
25269 23038 23048 1
25270 22990 23049 1
25271 22993 23050 1
25272 22997 23051 1
25273 22997 23052 1
25274 23002 23053 1
25275 23002 23054 1
25276 23003 23055 1
25277 23003 23056 1
25278 23004 23057 1
25279 23004 23058 1
25280 23012 23059 1
25281 23015 23060 1
25282 23021 23061 1
25283 23021 23062 1
25284 23022 23063 1
25285 23022 23064 1
25286 23023 23065 1
25287 23023 23066 1
25288 23024 23067 1
25289 23026 23068 1
25290 23027 23069 1
25291 23027 23070 1
25292 23030 23071 1
25293 23034 23072 1
25294 23036 23073 1
25295 23039 23074 1
25296 23040 23075 1
25297 23041 23076 1
25298 23042 23077 1
25299 23042 23078 1
25300 23042 23079 1
25301 23043 23080 1
25302 23044 23081 1
25303 23045 23082 1
25304 23045 23083 1
25305 23045 23084 1
25306 23046 23085 1
25307 23047 23086 1
25308 23048 23087 1
25309 23012 23088 1
25310 23015 23089 1
25311 23044 23090 1
25312 23091 23092 am
25313 23092 23093 am
25314 23093 23094 am
25315 23094 23095 am
25316 23095 23096 am
25317 23096 23091 am
25318 23097 23098 am
25319 23098 23099 1
25320 23093 23099 1
25321 23094 23097 1
25322 23100 23101 am
25323 23101 23102 am
25324 23102 23103 am
25325 23097 23103 am
25326 23098 23100 am
25327 23104 23105 1
25328 23105 23106 1
25329 23106 23107 1
25330 23102 23107 1
25331 23103 23104 1
25332 23108 23109 am
25333 23109 23110 am
25334 23101 23110 am
25335 23107 23108 am
25336 23111 23112 am
25337 23112 23113 am
25338 23100 23113 am
25339 23110 23111 am
25340 23114 23115 1
25341 23115 23116 am
25342 23116 23117 1
25343 23108 23117 1
25344 23109 23114 1
25345 23118 23119 am
25346 23119 23120 am
25347 23120 23121 am
25348 23115 23121 am
25349 23116 23118 am
25350 23122 23123 1
25351 23123 23124 1
25352 23124 23125 1
25353 23119 23125 1
25354 23120 23122 1
25355 23126 23127 am
25356 23127 23128 am
25357 23121 23126 am
25358 23122 23128 am
25359 23129 23130 1
25360 23130 23131 am
25361 23111 23131 am
25362 23112 23129 1
25363 23132 23133 am
25364 23133 23134 am
25365 23134 23135 am
25366 23130 23135 am
25367 23131 23132 am
25368 23136 23137 am
25369 23137 23138 am
25370 23138 23139 am
25371 23134 23139 am
25372 23135 23136 am
25373 23140 23141 am
25374 23141 23142 am
25375 23133 23142 am
25376 23139 23140 am
25377 23091 23143 1
25378 23096 23144 1
25379 23113 23145 1
25380 23137 23146 1
25381 23146 23147 1
25382 23127 23148 1
25383 23118 23149 1
25384 23140 23150 1
25385 23092 23151 1
25386 23095 23152 1
25387 23099 23153 1
25388 23099 23154 1
25389 23104 23155 1
25390 23104 23156 1
25391 23105 23157 1
25392 23105 23158 1
25393 23106 23159 1
25394 23106 23160 1
25395 23114 23161 1
25396 23117 23162 1
25397 23123 23163 1
25398 23123 23164 1
25399 23124 23165 1
25400 23124 23166 1
25401 23125 23167 1
25402 23125 23168 1
25403 23126 23169 1
25404 23128 23170 1
25405 23129 23171 1
25406 23129 23172 1
25407 23132 23173 1
25408 23136 23174 1
25409 23138 23175 1
25410 23141 23176 1
25411 23142 23177 1
25412 23143 23178 1
25413 23144 23179 1
25414 23144 23180 1
25415 23144 23181 1
25416 23145 23182 1
25417 23146 23183 1
25418 23147 23184 1
25419 23147 23185 1
25420 23147 23186 1
25421 23148 23187 1
25422 23149 23188 1
25423 23150 23189 1
25424 23114 23190 1
25425 23117 23191 1
25426 23146 23192 1
25427 23193 23194 am
25428 23194 23195 am
25429 23195 23196 am
25430 23196 23197 am
25431 23197 23198 am
25432 23198 23193 am
25433 23199 23200 am
25434 23200 23201 1
25435 23195 23201 1
25436 23196 23199 1
25437 23202 23203 am
25438 23203 23204 am
25439 23204 23205 am
25440 23199 23205 am
25441 23200 23202 am
25442 23206 23207 1
25443 23207 23208 1
25444 23208 23209 1
25445 23204 23209 1
25446 23205 23206 1
25447 23210 23211 am
25448 23211 23212 am
25449 23203 23212 am
25450 23209 23210 am
25451 23213 23214 am
25452 23214 23215 am
25453 23202 23215 am
25454 23212 23213 am
25455 23216 23217 1
25456 23217 23218 am
25457 23218 23219 1
25458 23210 23219 1
25459 23211 23216 1
25460 23220 23221 am
25461 23221 23222 am
25462 23222 23223 am
25463 23217 23223 am
25464 23218 23220 am
25465 23224 23225 1
25466 23225 23226 1
25467 23226 23227 1
25468 23221 23227 1
25469 23222 23224 1
25470 23228 23229 am
25471 23229 23230 am
25472 23223 23228 am
25473 23224 23230 am
25474 23231 23232 1
25475 23232 23233 am
25476 23213 23233 am
25477 23214 23231 1
25478 23234 23235 am
25479 23235 23236 am
25480 23236 23237 am
25481 23232 23237 am
25482 23233 23234 am
25483 23238 23239 am
25484 23239 23240 am
25485 23240 23241 am
25486 23236 23241 am
25487 23237 23238 am
25488 23242 23243 am
25489 23243 23244 am
25490 23235 23244 am
25491 23241 23242 am
25492 23193 23245 1
25493 23198 23246 1
25494 23215 23247 1
25495 23239 23248 1
25496 23248 23249 1
25497 23229 23250 1
25498 23220 23251 1
25499 23242 23252 1
25500 23194 23253 1
25501 23197 23254 1
25502 23201 23255 1
25503 23201 23256 1
25504 23206 23257 1
25505 23206 23258 1
25506 23207 23259 1
25507 23207 23260 1
25508 23208 23261 1
25509 23208 23262 1
25510 23216 23263 1
25511 23219 23264 1
25512 23225 23265 1
25513 23225 23266 1
25514 23226 23267 1
25515 23226 23268 1
25516 23227 23269 1
25517 23227 23270 1
25518 23228 23271 1
25519 23230 23272 1
25520 23231 23273 1
25521 23231 23274 1
25522 23234 23275 1
25523 23238 23276 1
25524 23240 23277 1
25525 23243 23278 1
25526 23244 23279 1
25527 23245 23280 1
25528 23246 23281 1
25529 23246 23282 1
25530 23246 23283 1
25531 23247 23284 1
25532 23248 23285 1
25533 23249 23286 1
25534 23249 23287 1
25535 23249 23288 1
25536 23250 23289 1
25537 23251 23290 1
25538 23252 23291 1
25539 23216 23292 1
25540 23219 23293 1
25541 23248 23294 1
25542 23295 23296 am
25543 23296 23297 am
25544 23297 23298 am
25545 23298 23299 am
25546 23299 23300 am
25547 23300 23295 am
25548 23301 23302 am
25549 23302 23303 1
25550 23297 23303 1
25551 23298 23301 1
25552 23304 23305 am
25553 23305 23306 am
25554 23306 23307 am
25555 23301 23307 am
25556 23302 23304 am
25557 23308 23309 1
25558 23309 23310 1
25559 23310 23311 1
25560 23306 23311 1
25561 23307 23308 1
25562 23312 23313 am
25563 23313 23314 am
25564 23305 23314 am
25565 23311 23312 am
25566 23315 23316 am
25567 23316 23317 am
25568 23304 23317 am
25569 23314 23315 am
25570 23318 23319 1
25571 23319 23320 am
25572 23320 23321 1
25573 23312 23321 1
25574 23313 23318 1
25575 23322 23323 am
25576 23323 23324 am
25577 23324 23325 am
25578 23319 23325 am
25579 23320 23322 am
25580 23326 23327 1
25581 23327 23328 1
25582 23328 23329 1
25583 23323 23329 1
25584 23324 23326 1
25585 23330 23331 am
25586 23331 23332 am
25587 23325 23330 am
25588 23326 23332 am
25589 23333 23334 1
25590 23334 23335 am
25591 23315 23335 am
25592 23316 23333 1
25593 23336 23337 am
25594 23337 23338 am
25595 23338 23339 am
25596 23334 23339 am
25597 23335 23336 am
25598 23340 23341 am
25599 23341 23342 am
25600 23342 23343 am
25601 23338 23343 am
25602 23339 23340 am
25603 23344 23345 am
25604 23345 23346 am
25605 23337 23346 am
25606 23343 23344 am
25607 23295 23347 1
25608 23300 23348 1
25609 23317 23349 1
25610 23341 23350 1
25611 23350 23351 1
25612 23331 23352 1
25613 23322 23353 1
25614 23344 23354 1
25615 23296 23355 1
25616 23299 23356 1
25617 23303 23357 1
25618 23303 23358 1
25619 23308 23359 1
25620 23308 23360 1
25621 23309 23361 1
25622 23309 23362 1
25623 23310 23363 1
25624 23310 23364 1
25625 23318 23365 1
25626 23321 23366 1
25627 23327 23367 1
25628 23327 23368 1
25629 23328 23369 1
25630 23328 23370 1
25631 23329 23371 1
25632 23329 23372 1
25633 23330 23373 1
25634 23332 23374 1
25635 23333 23375 1
25636 23333 23376 1
25637 23336 23377 1
25638 23340 23378 1
25639 23342 23379 1
25640 23345 23380 1
25641 23346 23381 1
25642 23347 23382 1
25643 23348 23383 1
25644 23348 23384 1
25645 23348 23385 1
25646 23349 23386 1
25647 23350 23387 1
25648 23351 23388 1
25649 23351 23389 1
25650 23351 23390 1
25651 23352 23391 1
25652 23353 23392 1
25653 23354 23393 1
25654 23318 23394 1
25655 23321 23395 1
25656 23350 23396 1
25657 23397 23398 am
25658 23398 23399 am
25659 23399 23400 am
25660 23400 23401 am
25661 23401 23402 am
25662 23402 23397 am
25663 23403 23404 am
25664 23404 23405 1
25665 23399 23405 1
25666 23400 23403 1
25667 23406 23407 am
25668 23407 23408 am
25669 23408 23409 am
25670 23403 23409 am
25671 23404 23406 am
25672 23410 23411 1
25673 23411 23412 1
25674 23412 23413 1
25675 23408 23413 1
25676 23409 23410 1
25677 23414 23415 am
25678 23415 23416 am
25679 23407 23416 am
25680 23413 23414 am
25681 23417 23418 am
25682 23418 23419 am
25683 23406 23419 am
25684 23416 23417 am
25685 23420 23421 1
25686 23421 23422 am
25687 23422 23423 1
25688 23414 23423 1
25689 23415 23420 1
25690 23424 23425 am
25691 23425 23426 am
25692 23426 23427 am
25693 23421 23427 am
25694 23422 23424 am
25695 23428 23429 1
25696 23429 23430 1
25697 23430 23431 1
25698 23425 23431 1
25699 23426 23428 1
25700 23432 23433 am
25701 23433 23434 am
25702 23427 23432 am
25703 23428 23434 am
25704 23435 23436 1
25705 23436 23437 am
25706 23417 23437 am
25707 23418 23435 1
25708 23438 23439 am
25709 23439 23440 am
25710 23440 23441 am
25711 23436 23441 am
25712 23437 23438 am
25713 23442 23443 am
25714 23443 23444 am
25715 23444 23445 am
25716 23440 23445 am
25717 23441 23442 am
25718 23446 23447 am
25719 23447 23448 am
25720 23439 23448 am
25721 23445 23446 am
25722 23397 23449 1
25723 23402 23450 1
25724 23419 23451 1
25725 23443 23452 1
25726 23452 23453 1
25727 23433 23454 1
25728 23424 23455 1
25729 23446 23456 1
25730 23398 23457 1
25731 23401 23458 1
25732 23405 23459 1
25733 23405 23460 1
25734 23410 23461 1
25735 23410 23462 1
25736 23411 23463 1
25737 23411 23464 1
25738 23412 23465 1
25739 23412 23466 1
25740 23420 23467 1
25741 23423 23468 1
25742 23429 23469 1
25743 23429 23470 1
25744 23430 23471 1
25745 23430 23472 1
25746 23431 23473 1
25747 23431 23474 1
25748 23432 23475 1
25749 23434 23476 1
25750 23435 23477 1
25751 23435 23478 1
25752 23438 23479 1
25753 23442 23480 1
25754 23444 23481 1
25755 23447 23482 1
25756 23448 23483 1
25757 23449 23484 1
25758 23450 23485 1
25759 23450 23486 1
25760 23450 23487 1
25761 23451 23488 1
25762 23452 23489 1
25763 23453 23490 1
25764 23453 23491 1
25765 23453 23492 1
25766 23454 23493 1
25767 23455 23494 1
25768 23456 23495 1
25769 23420 23496 1
25770 23423 23497 1
25771 23452 23498 1
25772 23499 23500 am
25773 23500 23501 am
25774 23501 23502 am
25775 23502 23503 am
25776 23503 23504 am
25777 23504 23499 am
25778 23505 23506 am
25779 23506 23507 1
25780 23501 23507 1
25781 23502 23505 1
25782 23508 23509 am
25783 23509 23510 am
25784 23510 23511 am
25785 23505 23511 am
25786 23506 23508 am
25787 23512 23513 1
25788 23513 23514 1
25789 23514 23515 1
25790 23510 23515 1
25791 23511 23512 1
25792 23516 23517 am
25793 23517 23518 am
25794 23509 23518 am
25795 23515 23516 am
25796 23519 23520 am
25797 23520 23521 am
25798 23508 23521 am
25799 23518 23519 am
25800 23522 23523 1
25801 23523 23524 am
25802 23524 23525 1
25803 23516 23525 1
25804 23517 23522 1
25805 23526 23527 am
25806 23527 23528 am
25807 23528 23529 am
25808 23523 23529 am
25809 23524 23526 am
25810 23530 23531 1
25811 23531 23532 1
25812 23532 23533 1
25813 23527 23533 1
25814 23528 23530 1
25815 23534 23535 am
25816 23535 23536 am
25817 23529 23534 am
25818 23530 23536 am
25819 23537 23538 1
25820 23538 23539 am
25821 23519 23539 am
25822 23520 23537 1
25823 23540 23541 am
25824 23541 23542 am
25825 23542 23543 am
25826 23538 23543 am
25827 23539 23540 am
25828 23544 23545 am
25829 23545 23546 am
25830 23546 23547 am
25831 23542 23547 am
25832 23543 23544 am
25833 23548 23549 am
25834 23549 23550 am
25835 23541 23550 am
25836 23547 23548 am
25837 23499 23551 1
25838 23504 23552 1
25839 23521 23553 1
25840 23545 23554 1
25841 23554 23555 1
25842 23535 23556 1
25843 23526 23557 1
25844 23548 23558 1
25845 23500 23559 1
25846 23503 23560 1
25847 23507 23561 1
25848 23507 23562 1
25849 23512 23563 1
25850 23512 23564 1
25851 23513 23565 1
25852 23513 23566 1
25853 23514 23567 1
25854 23514 23568 1
25855 23522 23569 1
25856 23525 23570 1
25857 23531 23571 1
25858 23531 23572 1
25859 23532 23573 1
25860 23532 23574 1
25861 23533 23575 1
25862 23533 23576 1
25863 23534 23577 1
25864 23536 23578 1
25865 23537 23579 1
25866 23537 23580 1
25867 23540 23581 1
25868 23544 23582 1
25869 23546 23583 1
25870 23549 23584 1
25871 23550 23585 1
25872 23551 23586 1
25873 23552 23587 1
25874 23552 23588 1
25875 23552 23589 1
25876 23553 23590 1
25877 23554 23591 1
25878 23555 23592 1
25879 23555 23593 1
25880 23555 23594 1
25881 23556 23595 1
25882 23557 23596 1
25883 23558 23597 1
25884 23522 23598 1
25885 23525 23599 1
25886 23554 23600 1
25887 23601 23602 am
25888 23602 23603 am
25889 23603 23604 am
25890 23604 23605 am
25891 23605 23606 am
25892 23606 23601 am
25893 23607 23608 am
25894 23608 23609 1
25895 23603 23609 1
25896 23604 23607 1
25897 23610 23611 am
25898 23611 23612 am
25899 23612 23613 am
25900 23607 23613 am
25901 23608 23610 am
25902 23614 23615 1
25903 23615 23616 1
25904 23616 23617 1
25905 23612 23617 1
25906 23613 23614 1
25907 23618 23619 am
25908 23619 23620 am
25909 23611 23620 am
25910 23617 23618 am
25911 23621 23622 am
25912 23622 23623 am
25913 23610 23623 am
25914 23620 23621 am
25915 23624 23625 1
25916 23625 23626 am
25917 23626 23627 1
25918 23618 23627 1
25919 23619 23624 1
25920 23628 23629 am
25921 23629 23630 am
25922 23630 23631 am
25923 23625 23631 am
25924 23626 23628 am
25925 23632 23633 1
25926 23633 23634 1
25927 23634 23635 1
25928 23629 23635 1
25929 23630 23632 1
25930 23636 23637 am
25931 23637 23638 am
25932 23631 23636 am
25933 23632 23638 am
25934 23639 23640 1
25935 23640 23641 am
25936 23621 23641 am
25937 23622 23639 1
25938 23642 23643 am
25939 23643 23644 am
25940 23644 23645 am
25941 23640 23645 am
25942 23641 23642 am
25943 23646 23647 am
25944 23647 23648 am
25945 23648 23649 am
25946 23644 23649 am
25947 23645 23646 am
25948 23650 23651 am
25949 23651 23652 am
25950 23643 23652 am
25951 23649 23650 am
25952 23601 23653 1
25953 23606 23654 1
25954 23623 23655 1
25955 23647 23656 1
25956 23656 23657 1
25957 23637 23658 1
25958 23628 23659 1
25959 23650 23660 1
25960 23602 23661 1
25961 23605 23662 1
25962 23609 23663 1
25963 23609 23664 1
25964 23614 23665 1
25965 23614 23666 1
25966 23615 23667 1
25967 23615 23668 1
25968 23616 23669 1
25969 23616 23670 1
25970 23624 23671 1
25971 23627 23672 1
25972 23633 23673 1
25973 23633 23674 1
25974 23634 23675 1
25975 23634 23676 1
25976 23635 23677 1
25977 23635 23678 1
25978 23636 23679 1
25979 23638 23680 1
25980 23639 23681 1
25981 23639 23682 1
25982 23642 23683 1
25983 23646 23684 1
25984 23648 23685 1
25985 23651 23686 1
25986 23652 23687 1
25987 23653 23688 1
25988 23654 23689 1
25989 23654 23690 1
25990 23654 23691 1
25991 23655 23692 1
25992 23656 23693 1
25993 23657 23694 1
25994 23657 23695 1
25995 23657 23696 1
25996 23658 23697 1
25997 23659 23698 1
25998 23660 23699 1
25999 23624 23700 1
26000 23627 23701 1
26001 23656 23702 1
26002 23703 23704 am
26003 23704 23705 am
26004 23705 23706 am
26005 23706 23707 am
26006 23707 23708 am
26007 23708 23703 am
26008 23709 23710 am
26009 23710 23711 1
26010 23705 23711 1
26011 23706 23709 1
26012 23712 23713 am
26013 23713 23714 am
26014 23714 23715 am
26015 23709 23715 am
26016 23710 23712 am
26017 23716 23717 1
26018 23717 23718 1
26019 23718 23719 1
26020 23714 23719 1
26021 23715 23716 1
26022 23720 23721 am
26023 23721 23722 am
26024 23713 23722 am
26025 23719 23720 am
26026 23723 23724 am
26027 23724 23725 am
26028 23712 23725 am
26029 23722 23723 am
26030 23726 23727 1
26031 23727 23728 am
26032 23728 23729 1
26033 23720 23729 1
26034 23721 23726 1
26035 23730 23731 am
26036 23731 23732 am
26037 23732 23733 am
26038 23727 23733 am
26039 23728 23730 am
26040 23734 23735 1
26041 23735 23736 1
26042 23736 23737 1
26043 23731 23737 1
26044 23732 23734 1
26045 23738 23739 am
26046 23739 23740 am
26047 23733 23738 am
26048 23734 23740 am
26049 23741 23742 1
26050 23742 23743 am
26051 23723 23743 am
26052 23724 23741 1
26053 23744 23745 am
26054 23745 23746 am
26055 23746 23747 am
26056 23742 23747 am
26057 23743 23744 am
26058 23748 23749 am
26059 23749 23750 am
26060 23750 23751 am
26061 23746 23751 am
26062 23747 23748 am
26063 23752 23753 am
26064 23753 23754 am
26065 23745 23754 am
26066 23751 23752 am
26067 23703 23755 1
26068 23708 23756 1
26069 23725 23757 1
26070 23749 23758 1
26071 23758 23759 1
26072 23739 23760 1
26073 23730 23761 1
26074 23752 23762 1
26075 23704 23763 1
26076 23707 23764 1
26077 23711 23765 1
26078 23711 23766 1
26079 23716 23767 1
26080 23716 23768 1
26081 23717 23769 1
26082 23717 23770 1
26083 23718 23771 1
26084 23718 23772 1
26085 23726 23773 1
26086 23729 23774 1
26087 23735 23775 1
26088 23735 23776 1
26089 23736 23777 1
26090 23736 23778 1
26091 23737 23779 1
26092 23737 23780 1
26093 23738 23781 1
26094 23740 23782 1
26095 23741 23783 1
26096 23741 23784 1
26097 23744 23785 1
26098 23748 23786 1
26099 23750 23787 1
26100 23753 23788 1
26101 23754 23789 1
26102 23755 23790 1
26103 23756 23791 1
26104 23756 23792 1
26105 23756 23793 1
26106 23757 23794 1
26107 23758 23795 1
26108 23759 23796 1
26109 23759 23797 1
26110 23759 23798 1
26111 23760 23799 1
26112 23761 23800 1
26113 23762 23801 1
26114 23726 23802 1
26115 23729 23803 1
26116 23758 23804 1
26117 23805 23806 am
26118 23806 23807 am
26119 23807 23808 am
26120 23808 23809 am
26121 23809 23810 am
26122 23810 23805 am
26123 23811 23812 am
26124 23812 23813 1
26125 23807 23813 1
26126 23808 23811 1
26127 23814 23815 am
26128 23815 23816 am
26129 23816 23817 am
26130 23811 23817 am
26131 23812 23814 am
26132 23818 23819 1
26133 23819 23820 1
26134 23820 23821 1
26135 23816 23821 1
26136 23817 23818 1
26137 23822 23823 am
26138 23823 23824 am
26139 23815 23824 am
26140 23821 23822 am
26141 23825 23826 am
26142 23826 23827 am
26143 23814 23827 am
26144 23824 23825 am
26145 23828 23829 1
26146 23829 23830 am
26147 23830 23831 1
26148 23822 23831 1
26149 23823 23828 1
26150 23832 23833 am
26151 23833 23834 am
26152 23834 23835 am
26153 23829 23835 am
26154 23830 23832 am
26155 23836 23837 1
26156 23837 23838 1
26157 23838 23839 1
26158 23833 23839 1
26159 23834 23836 1
26160 23840 23841 am
26161 23841 23842 am
26162 23835 23840 am
26163 23836 23842 am
26164 23843 23844 1
26165 23844 23845 am
26166 23825 23845 am
26167 23826 23843 1
26168 23846 23847 am
26169 23847 23848 am
26170 23848 23849 am
26171 23844 23849 am
26172 23845 23846 am
26173 23850 23851 am
26174 23851 23852 am
26175 23852 23853 am
26176 23848 23853 am
26177 23849 23850 am
26178 23854 23855 am
26179 23855 23856 am
26180 23847 23856 am
26181 23853 23854 am
26182 23805 23857 1
26183 23810 23858 1
26184 23827 23859 1
26185 23851 23860 1
26186 23860 23861 1
26187 23841 23862 1
26188 23832 23863 1
26189 23854 23864 1
26190 23806 23865 1
26191 23809 23866 1
26192 23813 23867 1
26193 23813 23868 1
26194 23818 23869 1
26195 23818 23870 1
26196 23819 23871 1
26197 23819 23872 1
26198 23820 23873 1
26199 23820 23874 1
26200 23828 23875 1
26201 23831 23876 1
26202 23837 23877 1
26203 23837 23878 1
26204 23838 23879 1
26205 23838 23880 1
26206 23839 23881 1
26207 23839 23882 1
26208 23840 23883 1
26209 23842 23884 1
26210 23843 23885 1
26211 23843 23886 1
26212 23846 23887 1
26213 23850 23888 1
26214 23852 23889 1
26215 23855 23890 1
26216 23856 23891 1
26217 23857 23892 1
26218 23858 23893 1
26219 23858 23894 1
26220 23858 23895 1
26221 23859 23896 1
26222 23860 23897 1
26223 23861 23898 1
26224 23861 23899 1
26225 23861 23900 1
26226 23862 23901 1
26227 23863 23902 1
26228 23864 23903 1
26229 23828 23904 1
26230 23831 23905 1
26231 23860 23906 1
26232 23907 23908 am
26233 23908 23909 am
26234 23909 23910 am
26235 23910 23911 am
26236 23911 23912 am
26237 23912 23907 am
26238 23913 23914 am
26239 23914 23915 1
26240 23909 23915 1
26241 23910 23913 1
26242 23916 23917 am
26243 23917 23918 am
26244 23918 23919 am
26245 23913 23919 am
26246 23914 23916 am
26247 23920 23921 1
26248 23921 23922 1
26249 23922 23923 1
26250 23918 23923 1
26251 23919 23920 1
26252 23924 23925 am
26253 23925 23926 am
26254 23917 23926 am
26255 23923 23924 am
26256 23927 23928 am
26257 23928 23929 am
26258 23916 23929 am
26259 23926 23927 am
26260 23930 23931 1
26261 23931 23932 am
26262 23932 23933 1
26263 23924 23933 1
26264 23925 23930 1
26265 23934 23935 am
26266 23935 23936 am
26267 23936 23937 am
26268 23931 23937 am
26269 23932 23934 am
26270 23938 23939 1
26271 23939 23940 1
26272 23940 23941 1
26273 23935 23941 1
26274 23936 23938 1
26275 23942 23943 am
26276 23943 23944 am
26277 23937 23942 am
26278 23938 23944 am
26279 23945 23946 1
26280 23946 23947 am
26281 23927 23947 am
26282 23928 23945 1
26283 23948 23949 am
26284 23949 23950 am
26285 23950 23951 am
26286 23946 23951 am
26287 23947 23948 am
26288 23952 23953 am
26289 23953 23954 am
26290 23954 23955 am
26291 23950 23955 am
26292 23951 23952 am
26293 23956 23957 am
26294 23957 23958 am
26295 23949 23958 am
26296 23955 23956 am
26297 23907 23959 1
26298 23912 23960 1
26299 23929 23961 1
26300 23953 23962 1
26301 23962 23963 1
26302 23943 23964 1
26303 23934 23965 1
26304 23956 23966 1
26305 23908 23967 1
26306 23911 23968 1
26307 23915 23969 1
26308 23915 23970 1
26309 23920 23971 1
26310 23920 23972 1
26311 23921 23973 1
26312 23921 23974 1
26313 23922 23975 1
26314 23922 23976 1
26315 23930 23977 1
26316 23933 23978 1
26317 23939 23979 1
26318 23939 23980 1
26319 23940 23981 1
26320 23940 23982 1
26321 23941 23983 1
26322 23941 23984 1
26323 23942 23985 1
26324 23944 23986 1
26325 23945 23987 1
26326 23945 23988 1
26327 23948 23989 1
26328 23952 23990 1
26329 23954 23991 1
26330 23957 23992 1
26331 23958 23993 1
26332 23959 23994 1
26333 23960 23995 1
26334 23960 23996 1
26335 23960 23997 1
26336 23961 23998 1
26337 23962 23999 1
26338 23963 24000 1
26339 23963 24001 1
26340 23963 24002 1
26341 23964 24003 1
26342 23965 24004 1
26343 23966 24005 1
26344 23930 24006 1
26345 23933 24007 1
26346 23962 24008 1
26347 24009 24010 am
26348 24010 24011 am
26349 24011 24012 am
26350 24012 24013 am
26351 24013 24014 am
26352 24014 24009 am
26353 24015 24016 am
26354 24016 24017 1
26355 24011 24017 1
26356 24012 24015 1
26357 24018 24019 am
26358 24019 24020 am
26359 24020 24021 am
26360 24015 24021 am
26361 24016 24018 am
26362 24022 24023 1
26363 24023 24024 1
26364 24024 24025 1
26365 24020 24025 1
26366 24021 24022 1
26367 24026 24027 am
26368 24027 24028 am
26369 24019 24028 am
26370 24025 24026 am
26371 24029 24030 am
26372 24030 24031 am
26373 24018 24031 am
26374 24028 24029 am
26375 24032 24033 1
26376 24033 24034 am
26377 24034 24035 1
26378 24026 24035 1
26379 24027 24032 1
26380 24036 24037 am
26381 24037 24038 am
26382 24038 24039 am
26383 24033 24039 am
26384 24034 24036 am
26385 24040 24041 1
26386 24041 24042 1
26387 24042 24043 1
26388 24037 24043 1
26389 24038 24040 1
26390 24044 24045 am
26391 24045 24046 am
26392 24039 24044 am
26393 24040 24046 am
26394 24047 24048 1
26395 24048 24049 am
26396 24029 24049 am
26397 24030 24047 1
26398 24050 24051 am
26399 24051 24052 am
26400 24052 24053 am
26401 24048 24053 am
26402 24049 24050 am
26403 24054 24055 am
26404 24055 24056 am
26405 24056 24057 am
26406 24052 24057 am
26407 24053 24054 am
26408 24058 24059 am
26409 24059 24060 am
26410 24051 24060 am
26411 24057 24058 am
26412 24009 24061 1
26413 24014 24062 1
26414 24031 24063 1
26415 24055 24064 1
26416 24064 24065 1
26417 24045 24066 1
26418 24036 24067 1
26419 24058 24068 1
26420 24010 24069 1
26421 24013 24070 1
26422 24017 24071 1
26423 24017 24072 1
26424 24022 24073 1
26425 24022 24074 1
26426 24023 24075 1
26427 24023 24076 1
26428 24024 24077 1
26429 24024 24078 1
26430 24032 24079 1
26431 24035 24080 1
26432 24041 24081 1
26433 24041 24082 1
26434 24042 24083 1
26435 24042 24084 1
26436 24043 24085 1
26437 24043 24086 1
26438 24044 24087 1
26439 24046 24088 1
26440 24047 24089 1
26441 24047 24090 1
26442 24050 24091 1
26443 24054 24092 1
26444 24056 24093 1
26445 24059 24094 1
26446 24060 24095 1
26447 24061 24096 1
26448 24062 24097 1
26449 24062 24098 1
26450 24062 24099 1
26451 24063 24100 1
26452 24064 24101 1
26453 24065 24102 1
26454 24065 24103 1
26455 24065 24104 1
26456 24066 24105 1
26457 24067 24106 1
26458 24068 24107 1
26459 24032 24108 1
26460 24035 24109 1
26461 24064 24110 1
26462 24111 24112 am
26463 24112 24113 am
26464 24113 24114 am
26465 24114 24115 am
26466 24115 24116 am
26467 24116 24111 am
26468 24117 24118 am
26469 24118 24119 1
26470 24113 24119 1
26471 24114 24117 1
26472 24120 24121 am
26473 24121 24122 am
26474 24122 24123 am
26475 24117 24123 am
26476 24118 24120 am
26477 24124 24125 1
26478 24125 24126 1
26479 24126 24127 1
26480 24122 24127 1
26481 24123 24124 1
26482 24128 24129 am
26483 24129 24130 am
26484 24121 24130 am
26485 24127 24128 am
26486 24131 24132 am
26487 24132 24133 am
26488 24120 24133 am
26489 24130 24131 am
26490 24134 24135 1
26491 24135 24136 am
26492 24136 24137 1
26493 24128 24137 1
26494 24129 24134 1
26495 24138 24139 am
26496 24139 24140 am
26497 24140 24141 am
26498 24135 24141 am
26499 24136 24138 am
26500 24142 24143 1
26501 24143 24144 1
26502 24144 24145 1
26503 24139 24145 1
26504 24140 24142 1
26505 24146 24147 am
26506 24147 24148 am
26507 24141 24146 am
26508 24142 24148 am
26509 24149 24150 1
26510 24150 24151 am
26511 24131 24151 am
26512 24132 24149 1
26513 24152 24153 am
26514 24153 24154 am
26515 24154 24155 am
26516 24150 24155 am
26517 24151 24152 am
26518 24156 24157 am
26519 24157 24158 am
26520 24158 24159 am
26521 24154 24159 am
26522 24155 24156 am
26523 24160 24161 am
26524 24161 24162 am
26525 24153 24162 am
26526 24159 24160 am
26527 24111 24163 1
26528 24116 24164 1
26529 24133 24165 1
26530 24157 24166 1
26531 24166 24167 1
26532 24147 24168 1
26533 24138 24169 1
26534 24160 24170 1
26535 24112 24171 1
26536 24115 24172 1
26537 24119 24173 1
26538 24119 24174 1
26539 24124 24175 1
26540 24124 24176 1
26541 24125 24177 1
26542 24125 24178 1
26543 24126 24179 1
26544 24126 24180 1
26545 24134 24181 1
26546 24137 24182 1
26547 24143 24183 1
26548 24143 24184 1
26549 24144 24185 1
26550 24144 24186 1
26551 24145 24187 1
26552 24145 24188 1
26553 24146 24189 1
26554 24148 24190 1
26555 24149 24191 1
26556 24149 24192 1
26557 24152 24193 1
26558 24156 24194 1
26559 24158 24195 1
26560 24161 24196 1
26561 24162 24197 1
26562 24163 24198 1
26563 24164 24199 1
26564 24164 24200 1
26565 24164 24201 1
26566 24165 24202 1
26567 24166 24203 1
26568 24167 24204 1
26569 24167 24205 1
26570 24167 24206 1
26571 24168 24207 1
26572 24169 24208 1
26573 24170 24209 1
26574 24134 24210 1
26575 24137 24211 1
26576 24166 24212 1
26577 24213 24214 am
26578 24214 24215 am
26579 24215 24216 am
26580 24216 24217 am
26581 24217 24218 am
26582 24218 24213 am
26583 24219 24220 am
26584 24220 24221 1
26585 24215 24221 1
26586 24216 24219 1
26587 24222 24223 am
26588 24223 24224 am
26589 24224 24225 am
26590 24219 24225 am
26591 24220 24222 am
26592 24226 24227 1
26593 24227 24228 1
26594 24228 24229 1
26595 24224 24229 1
26596 24225 24226 1
26597 24230 24231 am
26598 24231 24232 am
26599 24223 24232 am
26600 24229 24230 am
26601 24233 24234 am
26602 24234 24235 am
26603 24222 24235 am
26604 24232 24233 am
26605 24236 24237 1
26606 24237 24238 am
26607 24238 24239 1
26608 24230 24239 1
26609 24231 24236 1
26610 24240 24241 am
26611 24241 24242 am
26612 24242 24243 am
26613 24237 24243 am
26614 24238 24240 am
26615 24244 24245 1
26616 24245 24246 1
26617 24246 24247 1
26618 24241 24247 1
26619 24242 24244 1
26620 24248 24249 am
26621 24249 24250 am
26622 24243 24248 am
26623 24244 24250 am
26624 24251 24252 1
26625 24252 24253 am
26626 24233 24253 am
26627 24234 24251 1
26628 24254 24255 am
26629 24255 24256 am
26630 24256 24257 am
26631 24252 24257 am
26632 24253 24254 am
26633 24258 24259 am
26634 24259 24260 am
26635 24260 24261 am
26636 24256 24261 am
26637 24257 24258 am
26638 24262 24263 am
26639 24263 24264 am
26640 24255 24264 am
26641 24261 24262 am
26642 24213 24265 1
26643 24218 24266 1
26644 24235 24267 1
26645 24259 24268 1
26646 24268 24269 1
26647 24249 24270 1
26648 24240 24271 1
26649 24262 24272 1
26650 24214 24273 1
26651 24217 24274 1
26652 24221 24275 1
26653 24221 24276 1
26654 24226 24277 1
26655 24226 24278 1
26656 24227 24279 1
26657 24227 24280 1
26658 24228 24281 1
26659 24228 24282 1
26660 24236 24283 1
26661 24239 24284 1
26662 24245 24285 1
26663 24245 24286 1
26664 24246 24287 1
26665 24246 24288 1
26666 24247 24289 1
26667 24247 24290 1
26668 24248 24291 1
26669 24250 24292 1
26670 24251 24293 1
26671 24251 24294 1
26672 24254 24295 1
26673 24258 24296 1
26674 24260 24297 1
26675 24263 24298 1
26676 24264 24299 1
26677 24265 24300 1
26678 24266 24301 1
26679 24266 24302 1
26680 24266 24303 1
26681 24267 24304 1
26682 24268 24305 1
26683 24269 24306 1
26684 24269 24307 1
26685 24269 24308 1
26686 24270 24309 1
26687 24271 24310 1
26688 24272 24311 1
26689 24236 24312 1
26690 24239 24313 1
26691 24268 24314 1
26692 24315 24316 am
26693 24316 24317 am
26694 24317 24318 am
26695 24318 24319 am
26696 24319 24320 am
26697 24320 24315 am
26698 24321 24322 am
26699 24322 24323 1
26700 24317 24323 1
26701 24318 24321 1
26702 24324 24325 am
26703 24325 24326 am
26704 24326 24327 am
26705 24321 24327 am
26706 24322 24324 am
26707 24328 24329 1
26708 24329 24330 1
26709 24330 24331 1
26710 24326 24331 1
26711 24327 24328 1
26712 24332 24333 am
26713 24333 24334 am
26714 24325 24334 am
26715 24331 24332 am
26716 24335 24336 am
26717 24336 24337 am
26718 24324 24337 am
26719 24334 24335 am
26720 24338 24339 1
26721 24339 24340 am
26722 24340 24341 1
26723 24332 24341 1
26724 24333 24338 1
26725 24342 24343 am
26726 24343 24344 am
26727 24344 24345 am
26728 24339 24345 am
26729 24340 24342 am
26730 24346 24347 1
26731 24347 24348 1
26732 24348 24349 1
26733 24343 24349 1
26734 24344 24346 1
26735 24350 24351 am
26736 24351 24352 am
26737 24345 24350 am
26738 24346 24352 am
26739 24353 24354 1
26740 24354 24355 am
26741 24335 24355 am
26742 24336 24353 1
26743 24356 24357 am
26744 24357 24358 am
26745 24358 24359 am
26746 24354 24359 am
26747 24355 24356 am
26748 24360 24361 am
26749 24361 24362 am
26750 24362 24363 am
26751 24358 24363 am
26752 24359 24360 am
26753 24364 24365 am
26754 24365 24366 am
26755 24357 24366 am
26756 24363 24364 am
26757 24315 24367 1
26758 24320 24368 1
26759 24337 24369 1
26760 24361 24370 1
26761 24370 24371 1
26762 24351 24372 1
26763 24342 24373 1
26764 24364 24374 1
26765 24316 24375 1
26766 24319 24376 1
26767 24323 24377 1
26768 24323 24378 1
26769 24328 24379 1
26770 24328 24380 1
26771 24329 24381 1
26772 24329 24382 1
26773 24330 24383 1
26774 24330 24384 1
26775 24338 24385 1
26776 24341 24386 1
26777 24347 24387 1
26778 24347 24388 1
26779 24348 24389 1
26780 24348 24390 1
26781 24349 24391 1
26782 24349 24392 1
26783 24350 24393 1
26784 24352 24394 1
26785 24353 24395 1
26786 24353 24396 1
26787 24356 24397 1
26788 24360 24398 1
26789 24362 24399 1
26790 24365 24400 1
26791 24366 24401 1
26792 24367 24402 1
26793 24368 24403 1
26794 24368 24404 1
26795 24368 24405 1
26796 24369 24406 1
26797 24370 24407 1
26798 24371 24408 1
26799 24371 24409 1
26800 24371 24410 1
26801 24372 24411 1
26802 24373 24412 1
26803 24374 24413 1
26804 24338 24414 1
26805 24341 24415 1
26806 24370 24416 1
26807 24417 24418 am
26808 24418 24419 am
26809 24419 24420 am
26810 24420 24421 am
26811 24421 24422 am
26812 24422 24417 am
26813 24423 24424 am
26814 24424 24425 1
26815 24419 24425 1
26816 24420 24423 1
26817 24426 24427 am
26818 24427 24428 am
26819 24428 24429 am
26820 24423 24429 am
26821 24424 24426 am
26822 24430 24431 1
26823 24431 24432 1
26824 24432 24433 1
26825 24428 24433 1
26826 24429 24430 1
26827 24434 24435 am
26828 24435 24436 am
26829 24427 24436 am
26830 24433 24434 am
26831 24437 24438 am
26832 24438 24439 am
26833 24426 24439 am
26834 24436 24437 am
26835 24440 24441 1
26836 24441 24442 am
26837 24442 24443 1
26838 24434 24443 1
26839 24435 24440 1
26840 24444 24445 am
26841 24445 24446 am
26842 24446 24447 am
26843 24441 24447 am
26844 24442 24444 am
26845 24448 24449 1
26846 24449 24450 1
26847 24450 24451 1
26848 24445 24451 1
26849 24446 24448 1
26850 24452 24453 am
26851 24453 24454 am
26852 24447 24452 am
26853 24448 24454 am
26854 24455 24456 1
26855 24456 24457 am
26856 24437 24457 am
26857 24438 24455 1
26858 24458 24459 am
26859 24459 24460 am
26860 24460 24461 am
26861 24456 24461 am
26862 24457 24458 am
26863 24462 24463 am
26864 24463 24464 am
26865 24464 24465 am
26866 24460 24465 am
26867 24461 24462 am
26868 24466 24467 am
26869 24467 24468 am
26870 24459 24468 am
26871 24465 24466 am
26872 24417 24469 1
26873 24422 24470 1
26874 24439 24471 1
26875 24463 24472 1
26876 24472 24473 1
26877 24453 24474 1
26878 24444 24475 1
26879 24466 24476 1
26880 24418 24477 1
26881 24421 24478 1
26882 24425 24479 1
26883 24425 24480 1
26884 24430 24481 1
26885 24430 24482 1
26886 24431 24483 1
26887 24431 24484 1
26888 24432 24485 1
26889 24432 24486 1
26890 24440 24487 1
26891 24443 24488 1
26892 24449 24489 1
26893 24449 24490 1
26894 24450 24491 1
26895 24450 24492 1
26896 24451 24493 1
26897 24451 24494 1
26898 24452 24495 1
26899 24454 24496 1
26900 24455 24497 1
26901 24455 24498 1
26902 24458 24499 1
26903 24462 24500 1
26904 24464 24501 1
26905 24467 24502 1
26906 24468 24503 1
26907 24469 24504 1
26908 24470 24505 1
26909 24470 24506 1
26910 24470 24507 1
26911 24471 24508 1
26912 24472 24509 1
26913 24473 24510 1
26914 24473 24511 1
26915 24473 24512 1
26916 24474 24513 1
26917 24475 24514 1
26918 24476 24515 1
26919 24440 24516 1
26920 24443 24517 1
26921 24472 24518 1
26922 24519 24520 am
26923 24520 24521 am
26924 24521 24522 am
26925 24522 24523 am
26926 24523 24524 am
26927 24524 24519 am
26928 24525 24526 am
26929 24526 24527 1
26930 24521 24527 1
26931 24522 24525 1
26932 24528 24529 am
26933 24529 24530 am
26934 24530 24531 am
26935 24525 24531 am
26936 24526 24528 am
26937 24532 24533 1
26938 24533 24534 1
26939 24534 24535 1
26940 24530 24535 1
26941 24531 24532 1
26942 24536 24537 am
26943 24537 24538 am
26944 24529 24538 am
26945 24535 24536 am
26946 24539 24540 am
26947 24540 24541 am
26948 24528 24541 am
26949 24538 24539 am
26950 24542 24543 1
26951 24543 24544 am
26952 24544 24545 1
26953 24536 24545 1
26954 24537 24542 1
26955 24546 24547 am
26956 24547 24548 am
26957 24548 24549 am
26958 24543 24549 am
26959 24544 24546 am
26960 24550 24551 1
26961 24551 24552 1
26962 24552 24553 1
26963 24547 24553 1
26964 24548 24550 1
26965 24554 24555 am
26966 24555 24556 am
26967 24549 24554 am
26968 24550 24556 am
26969 24557 24558 1
26970 24558 24559 am
26971 24539 24559 am
26972 24540 24557 1
26973 24560 24561 am
26974 24561 24562 am
26975 24562 24563 am
26976 24558 24563 am
26977 24559 24560 am
26978 24564 24565 am
26979 24565 24566 am
26980 24566 24567 am
26981 24562 24567 am
26982 24563 24564 am
26983 24568 24569 am
26984 24569 24570 am
26985 24561 24570 am
26986 24567 24568 am
26987 24519 24571 1
26988 24524 24572 1
26989 24541 24573 1
26990 24565 24574 1
26991 24574 24575 1
26992 24555 24576 1
26993 24546 24577 1
26994 24568 24578 1
26995 24520 24579 1
26996 24523 24580 1
26997 24527 24581 1
26998 24527 24582 1
26999 24532 24583 1
27000 24532 24584 1
27001 24533 24585 1
27002 24533 24586 1
27003 24534 24587 1
27004 24534 24588 1
27005 24542 24589 1
27006 24545 24590 1
27007 24551 24591 1
27008 24551 24592 1
27009 24552 24593 1
27010 24552 24594 1
27011 24553 24595 1
27012 24553 24596 1
27013 24554 24597 1
27014 24556 24598 1
27015 24557 24599 1
27016 24557 24600 1
27017 24560 24601 1
27018 24564 24602 1
27019 24566 24603 1
27020 24569 24604 1
27021 24570 24605 1
27022 24571 24606 1
27023 24572 24607 1
27024 24572 24608 1
27025 24572 24609 1
27026 24573 24610 1
27027 24574 24611 1
27028 24575 24612 1
27029 24575 24613 1
27030 24575 24614 1
27031 24576 24615 1
27032 24577 24616 1
27033 24578 24617 1
27034 24542 24618 1
27035 24545 24619 1
27036 24574 24620 1
27037 24621 24622 am
27038 24622 24623 am
27039 24623 24624 am
27040 24624 24625 am
27041 24625 24626 am
27042 24626 24621 am
27043 24627 24628 am
27044 24628 24629 1
27045 24623 24629 1
27046 24624 24627 1
27047 24630 24631 am
27048 24631 24632 am
27049 24632 24633 am
27050 24627 24633 am
27051 24628 24630 am
27052 24634 24635 1
27053 24635 24636 1
27054 24636 24637 1
27055 24632 24637 1
27056 24633 24634 1
27057 24638 24639 am
27058 24639 24640 am
27059 24631 24640 am
27060 24637 24638 am
27061 24641 24642 am
27062 24642 24643 am
27063 24630 24643 am
27064 24640 24641 am
27065 24644 24645 1
27066 24645 24646 am
27067 24646 24647 1
27068 24638 24647 1
27069 24639 24644 1
27070 24648 24649 am
27071 24649 24650 am
27072 24650 24651 am
27073 24645 24651 am
27074 24646 24648 am
27075 24652 24653 1
27076 24653 24654 1
27077 24654 24655 1
27078 24649 24655 1
27079 24650 24652 1
27080 24656 24657 am
27081 24657 24658 am
27082 24651 24656 am
27083 24652 24658 am
27084 24659 24660 1
27085 24660 24661 am
27086 24641 24661 am
27087 24642 24659 1
27088 24662 24663 am
27089 24663 24664 am
27090 24664 24665 am
27091 24660 24665 am
27092 24661 24662 am
27093 24666 24667 am
27094 24667 24668 am
27095 24668 24669 am
27096 24664 24669 am
27097 24665 24666 am
27098 24670 24671 am
27099 24671 24672 am
27100 24663 24672 am
27101 24669 24670 am
27102 24621 24673 1
27103 24626 24674 1
27104 24643 24675 1
27105 24667 24676 1
27106 24676 24677 1
27107 24657 24678 1
27108 24648 24679 1
27109 24670 24680 1
27110 24622 24681 1
27111 24625 24682 1
27112 24629 24683 1
27113 24629 24684 1
27114 24634 24685 1
27115 24634 24686 1
27116 24635 24687 1
27117 24635 24688 1
27118 24636 24689 1
27119 24636 24690 1
27120 24644 24691 1
27121 24647 24692 1
27122 24653 24693 1
27123 24653 24694 1
27124 24654 24695 1
27125 24654 24696 1
27126 24655 24697 1
27127 24655 24698 1
27128 24656 24699 1
27129 24658 24700 1
27130 24659 24701 1
27131 24659 24702 1
27132 24662 24703 1
27133 24666 24704 1
27134 24668 24705 1
27135 24671 24706 1
27136 24672 24707 1
27137 24673 24708 1
27138 24674 24709 1
27139 24674 24710 1
27140 24674 24711 1
27141 24675 24712 1
27142 24676 24713 1
27143 24677 24714 1
27144 24677 24715 1
27145 24677 24716 1
27146 24678 24717 1
27147 24679 24718 1
27148 24680 24719 1
27149 24644 24720 1
27150 24647 24721 1
27151 24676 24722 1
27152 24723 24724 am
27153 24724 24725 am
27154 24725 24726 am
27155 24726 24727 am
27156 24727 24728 am
27157 24728 24723 am
27158 24729 24730 am
27159 24730 24731 1
27160 24725 24731 1
27161 24726 24729 1
27162 24732 24733 am
27163 24733 24734 am
27164 24734 24735 am
27165 24729 24735 am
27166 24730 24732 am
27167 24736 24737 1
27168 24737 24738 1
27169 24738 24739 1
27170 24734 24739 1
27171 24735 24736 1
27172 24740 24741 am
27173 24741 24742 am
27174 24733 24742 am
27175 24739 24740 am
27176 24743 24744 am
27177 24744 24745 am
27178 24732 24745 am
27179 24742 24743 am
27180 24746 24747 1
27181 24747 24748 am
27182 24748 24749 1
27183 24740 24749 1
27184 24741 24746 1
27185 24750 24751 am
27186 24751 24752 am
27187 24752 24753 am
27188 24747 24753 am
27189 24748 24750 am
27190 24754 24755 1
27191 24755 24756 1
27192 24756 24757 1
27193 24751 24757 1
27194 24752 24754 1
27195 24758 24759 am
27196 24759 24760 am
27197 24753 24758 am
27198 24754 24760 am
27199 24761 24762 1
27200 24762 24763 am
27201 24743 24763 am
27202 24744 24761 1
27203 24764 24765 am
27204 24765 24766 am
27205 24766 24767 am
27206 24762 24767 am
27207 24763 24764 am
27208 24768 24769 am
27209 24769 24770 am
27210 24770 24771 am
27211 24766 24771 am
27212 24767 24768 am
27213 24772 24773 am
27214 24773 24774 am
27215 24765 24774 am
27216 24771 24772 am
27217 24723 24775 1
27218 24728 24776 1
27219 24745 24777 1
27220 24769 24778 1
27221 24778 24779 1
27222 24759 24780 1
27223 24750 24781 1
27224 24772 24782 1
27225 24724 24783 1
27226 24727 24784 1
27227 24731 24785 1
27228 24731 24786 1
27229 24736 24787 1
27230 24736 24788 1
27231 24737 24789 1
27232 24737 24790 1
27233 24738 24791 1
27234 24738 24792 1
27235 24746 24793 1
27236 24749 24794 1
27237 24755 24795 1
27238 24755 24796 1
27239 24756 24797 1
27240 24756 24798 1
27241 24757 24799 1
27242 24757 24800 1
27243 24758 24801 1
27244 24760 24802 1
27245 24761 24803 1
27246 24761 24804 1
27247 24764 24805 1
27248 24768 24806 1
27249 24770 24807 1
27250 24773 24808 1
27251 24774 24809 1
27252 24775 24810 1
27253 24776 24811 1
27254 24776 24812 1
27255 24776 24813 1
27256 24777 24814 1
27257 24778 24815 1
27258 24779 24816 1
27259 24779 24817 1
27260 24779 24818 1
27261 24780 24819 1
27262 24781 24820 1
27263 24782 24821 1
27264 24746 24822 1
27265 24749 24823 1
27266 24778 24824 1
27267 24825 24826 am
27268 24826 24827 am
27269 24827 24828 am
27270 24828 24829 am
27271 24829 24830 am
27272 24830 24825 am
27273 24831 24832 am
27274 24832 24833 1
27275 24827 24833 1
27276 24828 24831 1
27277 24834 24835 am
27278 24835 24836 am
27279 24836 24837 am
27280 24831 24837 am
27281 24832 24834 am
27282 24838 24839 1
27283 24839 24840 1
27284 24840 24841 1
27285 24836 24841 1
27286 24837 24838 1
27287 24842 24843 am
27288 24843 24844 am
27289 24835 24844 am
27290 24841 24842 am
27291 24845 24846 am
27292 24846 24847 am
27293 24834 24847 am
27294 24844 24845 am
27295 24848 24849 1
27296 24849 24850 am
27297 24850 24851 1
27298 24842 24851 1
27299 24843 24848 1
27300 24852 24853 am
27301 24853 24854 am
27302 24854 24855 am
27303 24849 24855 am
27304 24850 24852 am
27305 24856 24857 1
27306 24857 24858 1
27307 24858 24859 1
27308 24853 24859 1
27309 24854 24856 1
27310 24860 24861 am
27311 24861 24862 am
27312 24855 24860 am
27313 24856 24862 am
27314 24863 24864 1
27315 24864 24865 am
27316 24845 24865 am
27317 24846 24863 1
27318 24866 24867 am
27319 24867 24868 am
27320 24868 24869 am
27321 24864 24869 am
27322 24865 24866 am
27323 24870 24871 am
27324 24871 24872 am
27325 24872 24873 am
27326 24868 24873 am
27327 24869 24870 am
27328 24874 24875 am
27329 24875 24876 am
27330 24867 24876 am
27331 24873 24874 am
27332 24825 24877 1
27333 24830 24878 1
27334 24847 24879 1
27335 24871 24880 1
27336 24880 24881 1
27337 24861 24882 1
27338 24852 24883 1
27339 24874 24884 1
27340 24826 24885 1
27341 24829 24886 1
27342 24833 24887 1
27343 24833 24888 1
27344 24838 24889 1
27345 24838 24890 1
27346 24839 24891 1
27347 24839 24892 1
27348 24840 24893 1
27349 24840 24894 1
27350 24848 24895 1
27351 24851 24896 1
27352 24857 24897 1
27353 24857 24898 1
27354 24858 24899 1
27355 24858 24900 1
27356 24859 24901 1
27357 24859 24902 1
27358 24860 24903 1
27359 24862 24904 1
27360 24863 24905 1
27361 24863 24906 1
27362 24866 24907 1
27363 24870 24908 1
27364 24872 24909 1
27365 24875 24910 1
27366 24876 24911 1
27367 24877 24912 1
27368 24878 24913 1
27369 24878 24914 1
27370 24878 24915 1
27371 24879 24916 1
27372 24880 24917 1
27373 24881 24918 1
27374 24881 24919 1
27375 24881 24920 1
27376 24882 24921 1
27377 24883 24922 1
27378 24884 24923 1
27379 24848 24924 1
27380 24851 24925 1
27381 24880 24926 1
27382 24927 24928 am
27383 24928 24929 am
27384 24929 24930 am
27385 24930 24931 am
27386 24931 24932 am
27387 24932 24927 am
27388 24933 24934 am
27389 24934 24935 1
27390 24929 24935 1
27391 24930 24933 1
27392 24936 24937 am
27393 24937 24938 am
27394 24938 24939 am
27395 24933 24939 am
27396 24934 24936 am
27397 24940 24941 1
27398 24941 24942 1
27399 24942 24943 1
27400 24938 24943 1
27401 24939 24940 1
27402 24944 24945 am
27403 24945 24946 am
27404 24937 24946 am
27405 24943 24944 am
27406 24947 24948 am
27407 24948 24949 am
27408 24936 24949 am
27409 24946 24947 am
27410 24950 24951 1
27411 24951 24952 am
27412 24952 24953 1
27413 24944 24953 1
27414 24945 24950 1
27415 24954 24955 am
27416 24955 24956 am
27417 24956 24957 am
27418 24951 24957 am
27419 24952 24954 am
27420 24958 24959 1
27421 24959 24960 1
27422 24960 24961 1
27423 24955 24961 1
27424 24956 24958 1
27425 24962 24963 am
27426 24963 24964 am
27427 24957 24962 am
27428 24958 24964 am
27429 24965 24966 1
27430 24966 24967 am
27431 24947 24967 am
27432 24948 24965 1
27433 24968 24969 am
27434 24969 24970 am
27435 24970 24971 am
27436 24966 24971 am
27437 24967 24968 am
27438 24972 24973 am
27439 24973 24974 am
27440 24974 24975 am
27441 24970 24975 am
27442 24971 24972 am
27443 24976 24977 am
27444 24977 24978 am
27445 24969 24978 am
27446 24975 24976 am
27447 24927 24979 1
27448 24932 24980 1
27449 24949 24981 1
27450 24973 24982 1
27451 24982 24983 1
27452 24963 24984 1
27453 24954 24985 1
27454 24976 24986 1
27455 24928 24987 1
27456 24931 24988 1
27457 24935 24989 1
27458 24935 24990 1
27459 24940 24991 1
27460 24940 24992 1
27461 24941 24993 1
27462 24941 24994 1
27463 24942 24995 1
27464 24942 24996 1
27465 24950 24997 1
27466 24953 24998 1
27467 24959 24999 1
27468 24959 25000 1
27469 24960 25001 1
27470 24960 25002 1
27471 24961 25003 1
27472 24961 25004 1
27473 24962 25005 1
27474 24964 25006 1
27475 24965 25007 1
27476 24965 25008 1
27477 24968 25009 1
27478 24972 25010 1
27479 24974 25011 1
27480 24977 25012 1
27481 24978 25013 1
27482 24979 25014 1
27483 24980 25015 1
27484 24980 25016 1
27485 24980 25017 1
27486 24981 25018 1
27487 24982 25019 1
27488 24983 25020 1
27489 24983 25021 1
27490 24983 25022 1
27491 24984 25023 1
27492 24985 25024 1
27493 24986 25025 1
27494 24950 25026 1
27495 24953 25027 1
27496 24982 25028 1
27497 25029 25030 am
27498 25030 25031 am
27499 25031 25032 am
27500 25032 25033 am
27501 25033 25034 am
27502 25034 25029 am
27503 25035 25036 am
27504 25036 25037 1
27505 25031 25037 1
27506 25032 25035 1
27507 25038 25039 am
27508 25039 25040 am
27509 25040 25041 am
27510 25035 25041 am
27511 25036 25038 am
27512 25042 25043 1
27513 25043 25044 1
27514 25044 25045 1
27515 25040 25045 1
27516 25041 25042 1
27517 25046 25047 am
27518 25047 25048 am
27519 25039 25048 am
27520 25045 25046 am
27521 25049 25050 am
27522 25050 25051 am
27523 25038 25051 am
27524 25048 25049 am
27525 25052 25053 1
27526 25053 25054 am
27527 25054 25055 1
27528 25046 25055 1
27529 25047 25052 1
27530 25056 25057 am
27531 25057 25058 am
27532 25058 25059 am
27533 25053 25059 am
27534 25054 25056 am
27535 25060 25061 1
27536 25061 25062 1
27537 25062 25063 1
27538 25057 25063 1
27539 25058 25060 1
27540 25064 25065 am
27541 25065 25066 am
27542 25059 25064 am
27543 25060 25066 am
27544 25067 25068 1
27545 25068 25069 am
27546 25049 25069 am
27547 25050 25067 1
27548 25070 25071 am
27549 25071 25072 am
27550 25072 25073 am
27551 25068 25073 am
27552 25069 25070 am
27553 25074 25075 am
27554 25075 25076 am
27555 25076 25077 am
27556 25072 25077 am
27557 25073 25074 am
27558 25078 25079 am
27559 25079 25080 am
27560 25071 25080 am
27561 25077 25078 am
27562 25029 25081 1
27563 25034 25082 1
27564 25051 25083 1
27565 25075 25084 1
27566 25084 25085 1
27567 25065 25086 1
27568 25056 25087 1
27569 25078 25088 1
27570 25030 25089 1
27571 25033 25090 1
27572 25037 25091 1
27573 25037 25092 1
27574 25042 25093 1
27575 25042 25094 1
27576 25043 25095 1
27577 25043 25096 1
27578 25044 25097 1
27579 25044 25098 1
27580 25052 25099 1
27581 25055 25100 1
27582 25061 25101 1
27583 25061 25102 1
27584 25062 25103 1
27585 25062 25104 1
27586 25063 25105 1
27587 25063 25106 1
27588 25064 25107 1
27589 25066 25108 1
27590 25067 25109 1
27591 25067 25110 1
27592 25070 25111 1
27593 25074 25112 1
27594 25076 25113 1
27595 25079 25114 1
27596 25080 25115 1
27597 25081 25116 1
27598 25082 25117 1
27599 25082 25118 1
27600 25082 25119 1
27601 25083 25120 1
27602 25084 25121 1
27603 25085 25122 1
27604 25085 25123 1
27605 25085 25124 1
27606 25086 25125 1
27607 25087 25126 1
27608 25088 25127 1
27609 25052 25128 1
27610 25055 25129 1
27611 25084 25130 1
27612 25131 25132 am
27613 25132 25133 am
27614 25133 25134 am
27615 25134 25135 am
27616 25135 25136 am
27617 25136 25131 am
27618 25137 25138 am
27619 25138 25139 1
27620 25133 25139 1
27621 25134 25137 1
27622 25140 25141 am
27623 25141 25142 am
27624 25142 25143 am
27625 25137 25143 am
27626 25138 25140 am
27627 25144 25145 1
27628 25145 25146 1
27629 25146 25147 1
27630 25142 25147 1
27631 25143 25144 1
27632 25148 25149 am
27633 25149 25150 am
27634 25141 25150 am
27635 25147 25148 am
27636 25151 25152 am
27637 25152 25153 am
27638 25140 25153 am
27639 25150 25151 am
27640 25154 25155 1
27641 25155 25156 am
27642 25156 25157 1
27643 25148 25157 1
27644 25149 25154 1
27645 25158 25159 am
27646 25159 25160 am
27647 25160 25161 am
27648 25155 25161 am
27649 25156 25158 am
27650 25162 25163 1
27651 25163 25164 1
27652 25164 25165 1
27653 25159 25165 1
27654 25160 25162 1
27655 25166 25167 am
27656 25167 25168 am
27657 25161 25166 am
27658 25162 25168 am
27659 25169 25170 1
27660 25170 25171 am
27661 25151 25171 am
27662 25152 25169 1
27663 25172 25173 am
27664 25173 25174 am
27665 25174 25175 am
27666 25170 25175 am
27667 25171 25172 am
27668 25176 25177 am
27669 25177 25178 am
27670 25178 25179 am
27671 25174 25179 am
27672 25175 25176 am
27673 25180 25181 am
27674 25181 25182 am
27675 25173 25182 am
27676 25179 25180 am
27677 25131 25183 1
27678 25136 25184 1
27679 25153 25185 1
27680 25177 25186 1
27681 25186 25187 1
27682 25167 25188 1
27683 25158 25189 1
27684 25180 25190 1
27685 25132 25191 1
27686 25135 25192 1
27687 25139 25193 1
27688 25139 25194 1
27689 25144 25195 1
27690 25144 25196 1
27691 25145 25197 1
27692 25145 25198 1
27693 25146 25199 1
27694 25146 25200 1
27695 25154 25201 1
27696 25157 25202 1
27697 25163 25203 1
27698 25163 25204 1
27699 25164 25205 1
27700 25164 25206 1
27701 25165 25207 1
27702 25165 25208 1
27703 25166 25209 1
27704 25168 25210 1
27705 25169 25211 1
27706 25169 25212 1
27707 25172 25213 1
27708 25176 25214 1
27709 25178 25215 1
27710 25181 25216 1
27711 25182 25217 1
27712 25183 25218 1
27713 25184 25219 1
27714 25184 25220 1
27715 25184 25221 1
27716 25185 25222 1
27717 25186 25223 1
27718 25187 25224 1
27719 25187 25225 1
27720 25187 25226 1
27721 25188 25227 1
27722 25189 25228 1
27723 25190 25229 1
27724 25154 25230 1
27725 25157 25231 1
27726 25186 25232 1
27727 25233 25234 am
27728 25234 25235 am
27729 25235 25236 am
27730 25236 25237 am
27731 25237 25238 am
27732 25238 25233 am
27733 25239 25240 am
27734 25240 25241 1
27735 25235 25241 1
27736 25236 25239 1
27737 25242 25243 am
27738 25243 25244 am
27739 25244 25245 am
27740 25239 25245 am
27741 25240 25242 am
27742 25246 25247 1
27743 25247 25248 1
27744 25248 25249 1
27745 25244 25249 1
27746 25245 25246 1
27747 25250 25251 am
27748 25251 25252 am
27749 25243 25252 am
27750 25249 25250 am
27751 25253 25254 am
27752 25254 25255 am
27753 25242 25255 am
27754 25252 25253 am
27755 25256 25257 1
27756 25257 25258 am
27757 25258 25259 1
27758 25250 25259 1
27759 25251 25256 1
27760 25260 25261 am
27761 25261 25262 am
27762 25262 25263 am
27763 25257 25263 am
27764 25258 25260 am
27765 25264 25265 1
27766 25265 25266 1
27767 25266 25267 1
27768 25261 25267 1
27769 25262 25264 1
27770 25268 25269 am
27771 25269 25270 am
27772 25263 25268 am
27773 25264 25270 am
27774 25271 25272 1
27775 25272 25273 am
27776 25253 25273 am
27777 25254 25271 1
27778 25274 25275 am
27779 25275 25276 am
27780 25276 25277 am
27781 25272 25277 am
27782 25273 25274 am
27783 25278 25279 am
27784 25279 25280 am
27785 25280 25281 am
27786 25276 25281 am
27787 25277 25278 am
27788 25282 25283 am
27789 25283 25284 am
27790 25275 25284 am
27791 25281 25282 am
27792 25233 25285 1
27793 25238 25286 1
27794 25255 25287 1
27795 25279 25288 1
27796 25288 25289 1
27797 25269 25290 1
27798 25260 25291 1
27799 25282 25292 1
27800 25234 25293 1
27801 25237 25294 1
27802 25241 25295 1
27803 25241 25296 1
27804 25246 25297 1
27805 25246 25298 1
27806 25247 25299 1
27807 25247 25300 1
27808 25248 25301 1
27809 25248 25302 1
27810 25256 25303 1
27811 25259 25304 1
27812 25265 25305 1
27813 25265 25306 1
27814 25266 25307 1
27815 25266 25308 1
27816 25267 25309 1
27817 25267 25310 1
27818 25268 25311 1
27819 25270 25312 1
27820 25271 25313 1
27821 25271 25314 1
27822 25274 25315 1
27823 25278 25316 1
27824 25280 25317 1
27825 25283 25318 1
27826 25284 25319 1
27827 25285 25320 1
27828 25286 25321 1
27829 25286 25322 1
27830 25286 25323 1
27831 25287 25324 1
27832 25288 25325 1
27833 25289 25326 1
27834 25289 25327 1
27835 25289 25328 1
27836 25290 25329 1
27837 25291 25330 1
27838 25292 25331 1
27839 25256 25332 1
27840 25259 25333 1
27841 25288 25334 1
27842 25335 25336 am
27843 25336 25337 am
27844 25337 25338 am
27845 25338 25339 am
27846 25339 25340 am
27847 25340 25335 am
27848 25341 25342 am
27849 25342 25343 1
27850 25337 25343 1
27851 25338 25341 1
27852 25344 25345 am
27853 25345 25346 am
27854 25346 25347 am
27855 25341 25347 am
27856 25342 25344 am
27857 25348 25349 1
27858 25349 25350 1
27859 25350 25351 1
27860 25346 25351 1
27861 25347 25348 1
27862 25352 25353 am
27863 25353 25354 am
27864 25345 25354 am
27865 25351 25352 am
27866 25355 25356 am
27867 25356 25357 am
27868 25344 25357 am
27869 25354 25355 am
27870 25358 25359 1
27871 25359 25360 am
27872 25360 25361 1
27873 25352 25361 1
27874 25353 25358 1
27875 25362 25363 am
27876 25363 25364 am
27877 25364 25365 am
27878 25359 25365 am
27879 25360 25362 am
27880 25366 25367 1
27881 25367 25368 1
27882 25368 25369 1
27883 25363 25369 1
27884 25364 25366 1
27885 25370 25371 am
27886 25371 25372 am
27887 25365 25370 am
27888 25366 25372 am
27889 25373 25374 1
27890 25374 25375 am
27891 25355 25375 am
27892 25356 25373 1
27893 25376 25377 am
27894 25377 25378 am
27895 25378 25379 am
27896 25374 25379 am
27897 25375 25376 am
27898 25380 25381 am
27899 25381 25382 am
27900 25382 25383 am
27901 25378 25383 am
27902 25379 25380 am
27903 25384 25385 am
27904 25385 25386 am
27905 25377 25386 am
27906 25383 25384 am
27907 25335 25387 1
27908 25340 25388 1
27909 25357 25389 1
27910 25381 25390 1
27911 25390 25391 1
27912 25371 25392 1
27913 25362 25393 1
27914 25384 25394 1
27915 25336 25395 1
27916 25339 25396 1
27917 25343 25397 1
27918 25343 25398 1
27919 25348 25399 1
27920 25348 25400 1
27921 25349 25401 1
27922 25349 25402 1
27923 25350 25403 1
27924 25350 25404 1
27925 25358 25405 1
27926 25361 25406 1
27927 25367 25407 1
27928 25367 25408 1
27929 25368 25409 1
27930 25368 25410 1
27931 25369 25411 1
27932 25369 25412 1
27933 25370 25413 1
27934 25372 25414 1
27935 25373 25415 1
27936 25373 25416 1
27937 25376 25417 1
27938 25380 25418 1
27939 25382 25419 1
27940 25385 25420 1
27941 25386 25421 1
27942 25387 25422 1
27943 25388 25423 1
27944 25388 25424 1
27945 25388 25425 1
27946 25389 25426 1
27947 25390 25427 1
27948 25391 25428 1
27949 25391 25429 1
27950 25391 25430 1
27951 25392 25431 1
27952 25393 25432 1
27953 25394 25433 1
27954 25358 25434 1
27955 25361 25435 1
27956 25390 25436 1
27957 25437 25438 am
27958 25438 25439 am
27959 25439 25440 am
27960 25440 25441 am
27961 25441 25442 am
27962 25442 25437 am
27963 25443 25444 am
27964 25444 25445 1
27965 25439 25445 1
27966 25440 25443 1
27967 25446 25447 am
27968 25447 25448 am
27969 25448 25449 am
27970 25443 25449 am
27971 25444 25446 am
27972 25450 25451 1
27973 25451 25452 1
27974 25452 25453 1
27975 25448 25453 1
27976 25449 25450 1
27977 25454 25455 am
27978 25455 25456 am
27979 25447 25456 am
27980 25453 25454 am
27981 25457 25458 am
27982 25458 25459 am
27983 25446 25459 am
27984 25456 25457 am
27985 25460 25461 1
27986 25461 25462 am
27987 25462 25463 1
27988 25454 25463 1
27989 25455 25460 1
27990 25464 25465 am
27991 25465 25466 am
27992 25466 25467 am
27993 25461 25467 am
27994 25462 25464 am
27995 25468 25469 1
27996 25469 25470 1
27997 25470 25471 1
27998 25465 25471 1
27999 25466 25468 1
28000 25472 25473 am
28001 25473 25474 am
28002 25467 25472 am
28003 25468 25474 am
28004 25475 25476 1
28005 25476 25477 am
28006 25457 25477 am
28007 25458 25475 1
28008 25478 25479 am
28009 25479 25480 am
28010 25480 25481 am
28011 25476 25481 am
28012 25477 25478 am
28013 25482 25483 am
28014 25483 25484 am
28015 25484 25485 am
28016 25480 25485 am
28017 25481 25482 am
28018 25486 25487 am
28019 25487 25488 am
28020 25479 25488 am
28021 25485 25486 am
28022 25437 25489 1
28023 25442 25490 1
28024 25459 25491 1
28025 25483 25492 1
28026 25492 25493 1
28027 25473 25494 1
28028 25464 25495 1
28029 25486 25496 1
28030 25438 25497 1
28031 25441 25498 1
28032 25445 25499 1
28033 25445 25500 1
28034 25450 25501 1
28035 25450 25502 1
28036 25451 25503 1
28037 25451 25504 1
28038 25452 25505 1
28039 25452 25506 1
28040 25460 25507 1
28041 25463 25508 1
28042 25469 25509 1
28043 25469 25510 1
28044 25470 25511 1
28045 25470 25512 1
28046 25471 25513 1
28047 25471 25514 1
28048 25472 25515 1
28049 25474 25516 1
28050 25475 25517 1
28051 25475 25518 1
28052 25478 25519 1
28053 25482 25520 1
28054 25484 25521 1
28055 25487 25522 1
28056 25488 25523 1
28057 25489 25524 1
28058 25490 25525 1
28059 25490 25526 1
28060 25490 25527 1
28061 25491 25528 1
28062 25492 25529 1
28063 25493 25530 1
28064 25493 25531 1
28065 25493 25532 1
28066 25494 25533 1
28067 25495 25534 1
28068 25496 25535 1
28069 25460 25536 1
28070 25463 25537 1
28071 25492 25538 1
28072 25539 25540 am
28073 25540 25541 am
28074 25541 25542 am
28075 25542 25543 am
28076 25543 25544 am
28077 25544 25539 am
28078 25545 25546 am
28079 25546 25547 1
28080 25541 25547 1
28081 25542 25545 1
28082 25548 25549 am
28083 25549 25550 am
28084 25550 25551 am
28085 25545 25551 am
28086 25546 25548 am
28087 25552 25553 1
28088 25553 25554 1
28089 25554 25555 1
28090 25550 25555 1
28091 25551 25552 1
28092 25556 25557 am
28093 25557 25558 am
28094 25549 25558 am
28095 25555 25556 am
28096 25559 25560 am
28097 25560 25561 am
28098 25548 25561 am
28099 25558 25559 am
28100 25562 25563 1
28101 25563 25564 am
28102 25564 25565 1
28103 25556 25565 1
28104 25557 25562 1
28105 25566 25567 am
28106 25567 25568 am
28107 25568 25569 am
28108 25563 25569 am
28109 25564 25566 am
28110 25570 25571 1
28111 25571 25572 1
28112 25572 25573 1
28113 25567 25573 1
28114 25568 25570 1
28115 25574 25575 am
28116 25575 25576 am
28117 25569 25574 am
28118 25570 25576 am
28119 25577 25578 1
28120 25578 25579 am
28121 25559 25579 am
28122 25560 25577 1
28123 25580 25581 am
28124 25581 25582 am
28125 25582 25583 am
28126 25578 25583 am
28127 25579 25580 am
28128 25584 25585 am
28129 25585 25586 am
28130 25586 25587 am
28131 25582 25587 am
28132 25583 25584 am
28133 25588 25589 am
28134 25589 25590 am
28135 25581 25590 am
28136 25587 25588 am
28137 25539 25591 1
28138 25544 25592 1
28139 25561 25593 1
28140 25585 25594 1
28141 25594 25595 1
28142 25575 25596 1
28143 25566 25597 1
28144 25588 25598 1
28145 25540 25599 1
28146 25543 25600 1
28147 25547 25601 1
28148 25547 25602 1
28149 25552 25603 1
28150 25552 25604 1
28151 25553 25605 1
28152 25553 25606 1
28153 25554 25607 1
28154 25554 25608 1
28155 25562 25609 1
28156 25565 25610 1
28157 25571 25611 1
28158 25571 25612 1
28159 25572 25613 1
28160 25572 25614 1
28161 25573 25615 1
28162 25573 25616 1
28163 25574 25617 1
28164 25576 25618 1
28165 25577 25619 1
28166 25577 25620 1
28167 25580 25621 1
28168 25584 25622 1
28169 25586 25623 1
28170 25589 25624 1
28171 25590 25625 1
28172 25591 25626 1
28173 25592 25627 1
28174 25592 25628 1
28175 25592 25629 1
28176 25593 25630 1
28177 25594 25631 1
28178 25595 25632 1
28179 25595 25633 1
28180 25595 25634 1
28181 25596 25635 1
28182 25597 25636 1
28183 25598 25637 1
28184 25562 25638 1
28185 25565 25639 1
28186 25594 25640 1
28187 25641 25642 am
28188 25642 25643 am
28189 25643 25644 am
28190 25644 25645 am
28191 25645 25646 am
28192 25646 25641 am
28193 25647 25648 am
28194 25648 25649 1
28195 25643 25649 1
28196 25644 25647 1
28197 25650 25651 am
28198 25651 25652 am
28199 25652 25653 am
28200 25647 25653 am
28201 25648 25650 am
28202 25654 25655 1
28203 25655 25656 1
28204 25656 25657 1
28205 25652 25657 1
28206 25653 25654 1
28207 25658 25659 am
28208 25659 25660 am
28209 25651 25660 am
28210 25657 25658 am
28211 25661 25662 am
28212 25662 25663 am
28213 25650 25663 am
28214 25660 25661 am
28215 25664 25665 1
28216 25665 25666 am
28217 25666 25667 1
28218 25658 25667 1
28219 25659 25664 1
28220 25668 25669 am
28221 25669 25670 am
28222 25670 25671 am
28223 25665 25671 am
28224 25666 25668 am
28225 25672 25673 1
28226 25673 25674 1
28227 25674 25675 1
28228 25669 25675 1
28229 25670 25672 1
28230 25676 25677 am
28231 25677 25678 am
28232 25671 25676 am
28233 25672 25678 am
28234 25679 25680 1
28235 25680 25681 am
28236 25661 25681 am
28237 25662 25679 1
28238 25682 25683 am
28239 25683 25684 am
28240 25684 25685 am
28241 25680 25685 am
28242 25681 25682 am
28243 25686 25687 am
28244 25687 25688 am
28245 25688 25689 am
28246 25684 25689 am
28247 25685 25686 am
28248 25690 25691 am
28249 25691 25692 am
28250 25683 25692 am
28251 25689 25690 am
28252 25641 25693 1
28253 25646 25694 1
28254 25663 25695 1
28255 25687 25696 1
28256 25696 25697 1
28257 25677 25698 1
28258 25668 25699 1
28259 25690 25700 1
28260 25642 25701 1
28261 25645 25702 1
28262 25649 25703 1
28263 25649 25704 1
28264 25654 25705 1
28265 25654 25706 1
28266 25655 25707 1
28267 25655 25708 1
28268 25656 25709 1
28269 25656 25710 1
28270 25664 25711 1
28271 25667 25712 1
28272 25673 25713 1
28273 25673 25714 1
28274 25674 25715 1
28275 25674 25716 1
28276 25675 25717 1
28277 25675 25718 1
28278 25676 25719 1
28279 25678 25720 1
28280 25679 25721 1
28281 25679 25722 1
28282 25682 25723 1
28283 25686 25724 1
28284 25688 25725 1
28285 25691 25726 1
28286 25692 25727 1
28287 25693 25728 1
28288 25694 25729 1
28289 25694 25730 1
28290 25694 25731 1
28291 25695 25732 1
28292 25696 25733 1
28293 25697 25734 1
28294 25697 25735 1
28295 25697 25736 1
28296 25698 25737 1
28297 25699 25738 1
28298 25700 25739 1
28299 25664 25740 1
28300 25667 25741 1
28301 25696 25742 1
28302 25743 25744 am
28303 25744 25745 am
28304 25745 25746 am
28305 25746 25747 am
28306 25747 25748 am
28307 25748 25743 am
28308 25749 25750 am
28309 25750 25751 1
28310 25745 25751 1
28311 25746 25749 1
28312 25752 25753 am
28313 25753 25754 am
28314 25754 25755 am
28315 25749 25755 am
28316 25750 25752 am
28317 25756 25757 1
28318 25757 25758 1
28319 25758 25759 1
28320 25754 25759 1
28321 25755 25756 1
28322 25760 25761 am
28323 25761 25762 am
28324 25753 25762 am
28325 25759 25760 am
28326 25763 25764 am
28327 25764 25765 am
28328 25752 25765 am
28329 25762 25763 am
28330 25766 25767 1
28331 25767 25768 am
28332 25768 25769 1
28333 25760 25769 1
28334 25761 25766 1
28335 25770 25771 am
28336 25771 25772 am
28337 25772 25773 am
28338 25767 25773 am
28339 25768 25770 am
28340 25774 25775 1
28341 25775 25776 1
28342 25776 25777 1
28343 25771 25777 1
28344 25772 25774 1
28345 25778 25779 am
28346 25779 25780 am
28347 25773 25778 am
28348 25774 25780 am
28349 25781 25782 1
28350 25782 25783 am
28351 25763 25783 am
28352 25764 25781 1
28353 25784 25785 am
28354 25785 25786 am
28355 25786 25787 am
28356 25782 25787 am
28357 25783 25784 am
28358 25788 25789 am
28359 25789 25790 am
28360 25790 25791 am
28361 25786 25791 am
28362 25787 25788 am
28363 25792 25793 am
28364 25793 25794 am
28365 25785 25794 am
28366 25791 25792 am
28367 25743 25795 1
28368 25748 25796 1
28369 25765 25797 1
28370 25789 25798 1
28371 25798 25799 1
28372 25779 25800 1
28373 25770 25801 1
28374 25792 25802 1
28375 25744 25803 1
28376 25747 25804 1
28377 25751 25805 1
28378 25751 25806 1
28379 25756 25807 1
28380 25756 25808 1
28381 25757 25809 1
28382 25757 25810 1
28383 25758 25811 1
28384 25758 25812 1
28385 25766 25813 1
28386 25769 25814 1
28387 25775 25815 1
28388 25775 25816 1
28389 25776 25817 1
28390 25776 25818 1
28391 25777 25819 1
28392 25777 25820 1
28393 25778 25821 1
28394 25780 25822 1
28395 25781 25823 1
28396 25781 25824 1
28397 25784 25825 1
28398 25788 25826 1
28399 25790 25827 1
28400 25793 25828 1
28401 25794 25829 1
28402 25795 25830 1
28403 25796 25831 1
28404 25796 25832 1
28405 25796 25833 1
28406 25797 25834 1
28407 25798 25835 1
28408 25799 25836 1
28409 25799 25837 1
28410 25799 25838 1
28411 25800 25839 1
28412 25801 25840 1
28413 25802 25841 1
28414 25766 25842 1
28415 25769 25843 1
28416 25798 25844 1
28417 25845 25846 am
28418 25846 25847 am
28419 25847 25848 am
28420 25848 25849 am
28421 25849 25850 am
28422 25850 25845 am
28423 25851 25852 am
28424 25852 25853 1
28425 25847 25853 1
28426 25848 25851 1
28427 25854 25855 am
28428 25855 25856 am
28429 25856 25857 am
28430 25851 25857 am
28431 25852 25854 am
28432 25858 25859 1
28433 25859 25860 1
28434 25860 25861 1
28435 25856 25861 1
28436 25857 25858 1
28437 25862 25863 am
28438 25863 25864 am
28439 25855 25864 am
28440 25861 25862 am
28441 25865 25866 am
28442 25866 25867 am
28443 25854 25867 am
28444 25864 25865 am
28445 25868 25869 1
28446 25869 25870 am
28447 25870 25871 1
28448 25862 25871 1
28449 25863 25868 1
28450 25872 25873 am
28451 25873 25874 am
28452 25874 25875 am
28453 25869 25875 am
28454 25870 25872 am
28455 25876 25877 1
28456 25877 25878 1
28457 25878 25879 1
28458 25873 25879 1
28459 25874 25876 1
28460 25880 25881 am
28461 25881 25882 am
28462 25875 25880 am
28463 25876 25882 am
28464 25883 25884 1
28465 25884 25885 am
28466 25865 25885 am
28467 25866 25883 1
28468 25886 25887 am
28469 25887 25888 am
28470 25888 25889 am
28471 25884 25889 am
28472 25885 25886 am
28473 25890 25891 am
28474 25891 25892 am
28475 25892 25893 am
28476 25888 25893 am
28477 25889 25890 am
28478 25894 25895 am
28479 25895 25896 am
28480 25887 25896 am
28481 25893 25894 am
28482 25845 25897 1
28483 25850 25898 1
28484 25867 25899 1
28485 25891 25900 1
28486 25900 25901 1
28487 25881 25902 1
28488 25872 25903 1
28489 25894 25904 1
28490 25846 25905 1
28491 25849 25906 1
28492 25853 25907 1
28493 25853 25908 1
28494 25858 25909 1
28495 25858 25910 1
28496 25859 25911 1
28497 25859 25912 1
28498 25860 25913 1
28499 25860 25914 1
28500 25868 25915 1
28501 25871 25916 1
28502 25877 25917 1
28503 25877 25918 1
28504 25878 25919 1
28505 25878 25920 1
28506 25879 25921 1
28507 25879 25922 1
28508 25880 25923 1
28509 25882 25924 1
28510 25883 25925 1
28511 25883 25926 1
28512 25886 25927 1
28513 25890 25928 1
28514 25892 25929 1
28515 25895 25930 1
28516 25896 25931 1
28517 25897 25932 1
28518 25898 25933 1
28519 25898 25934 1
28520 25898 25935 1
28521 25899 25936 1
28522 25900 25937 1
28523 25901 25938 1
28524 25901 25939 1
28525 25901 25940 1
28526 25902 25941 1
28527 25903 25942 1
28528 25904 25943 1
28529 25868 25944 1
28530 25871 25945 1
28531 25900 25946 1
28532 25947 25948 am
28533 25948 25949 am
28534 25949 25950 am
28535 25950 25951 am
28536 25951 25952 am
28537 25952 25947 am
28538 25953 25954 am
28539 25954 25955 1
28540 25949 25955 1
28541 25950 25953 1
28542 25956 25957 am
28543 25957 25958 am
28544 25958 25959 am
28545 25953 25959 am
28546 25954 25956 am
28547 25960 25961 1
28548 25961 25962 1
28549 25962 25963 1
28550 25958 25963 1
28551 25959 25960 1
28552 25964 25965 am
28553 25965 25966 am
28554 25957 25966 am
28555 25963 25964 am
28556 25967 25968 am
28557 25968 25969 am
28558 25956 25969 am
28559 25966 25967 am
28560 25970 25971 1
28561 25971 25972 am
28562 25972 25973 1
28563 25964 25973 1
28564 25965 25970 1
28565 25974 25975 am
28566 25975 25976 am
28567 25976 25977 am
28568 25971 25977 am
28569 25972 25974 am
28570 25978 25979 1
28571 25979 25980 1
28572 25980 25981 1
28573 25975 25981 1
28574 25976 25978 1
28575 25982 25983 am
28576 25983 25984 am
28577 25977 25982 am
28578 25978 25984 am
28579 25985 25986 1
28580 25986 25987 am
28581 25967 25987 am
28582 25968 25985 1
28583 25988 25989 am
28584 25989 25990 am
28585 25990 25991 am
28586 25986 25991 am
28587 25987 25988 am
28588 25992 25993 am
28589 25993 25994 am
28590 25994 25995 am
28591 25990 25995 am
28592 25991 25992 am
28593 25996 25997 am
28594 25997 25998 am
28595 25989 25998 am
28596 25995 25996 am
28597 25947 25999 1
28598 25952 26000 1
28599 25969 26001 1
28600 25993 26002 1
28601 26002 26003 1
28602 25983 26004 1
28603 25974 26005 1
28604 25996 26006 1
28605 25948 26007 1
28606 25951 26008 1
28607 25955 26009 1
28608 25955 26010 1
28609 25960 26011 1
28610 25960 26012 1
28611 25961 26013 1
28612 25961 26014 1
28613 25962 26015 1
28614 25962 26016 1
28615 25970 26017 1
28616 25973 26018 1
28617 25979 26019 1
28618 25979 26020 1
28619 25980 26021 1
28620 25980 26022 1
28621 25981 26023 1
28622 25981 26024 1
28623 25982 26025 1
28624 25984 26026 1
28625 25985 26027 1
28626 25985 26028 1
28627 25988 26029 1
28628 25992 26030 1
28629 25994 26031 1
28630 25997 26032 1
28631 25998 26033 1
28632 25999 26034 1
28633 26000 26035 1
28634 26000 26036 1
28635 26000 26037 1
28636 26001 26038 1
28637 26002 26039 1
28638 26003 26040 1
28639 26003 26041 1
28640 26003 26042 1
28641 26004 26043 1
28642 26005 26044 1
28643 26006 26045 1
28644 25970 26046 1
28645 25973 26047 1
28646 26002 26048 1
28647 26049 26050 am
28648 26050 26051 am
28649 26051 26052 am
28650 26052 26053 am
28651 26053 26054 am
28652 26054 26049 am
28653 26055 26056 am
28654 26056 26057 1
28655 26051 26057 1
28656 26052 26055 1
28657 26058 26059 am
28658 26059 26060 am
28659 26060 26061 am
28660 26055 26061 am
28661 26056 26058 am
28662 26062 26063 1
28663 26063 26064 1
28664 26064 26065 1
28665 26060 26065 1
28666 26061 26062 1
28667 26066 26067 am
28668 26067 26068 am
28669 26059 26068 am
28670 26065 26066 am
28671 26069 26070 am
28672 26070 26071 am
28673 26058 26071 am
28674 26068 26069 am
28675 26072 26073 1
28676 26073 26074 am
28677 26074 26075 1
28678 26066 26075 1
28679 26067 26072 1
28680 26076 26077 am
28681 26077 26078 am
28682 26078 26079 am
28683 26073 26079 am
28684 26074 26076 am
28685 26080 26081 1
28686 26081 26082 1
28687 26082 26083 1
28688 26077 26083 1
28689 26078 26080 1
28690 26084 26085 am
28691 26085 26086 am
28692 26079 26084 am
28693 26080 26086 am
28694 26087 26088 1
28695 26088 26089 am
28696 26069 26089 am
28697 26070 26087 1
28698 26090 26091 am
28699 26091 26092 am
28700 26092 26093 am
28701 26088 26093 am
28702 26089 26090 am
28703 26094 26095 am
28704 26095 26096 am
28705 26096 26097 am
28706 26092 26097 am
28707 26093 26094 am
28708 26098 26099 am
28709 26099 26100 am
28710 26091 26100 am
28711 26097 26098 am
28712 26049 26101 1
28713 26054 26102 1
28714 26071 26103 1
28715 26095 26104 1
28716 26104 26105 1
28717 26085 26106 1
28718 26076 26107 1
28719 26098 26108 1
28720 26050 26109 1
28721 26053 26110 1
28722 26057 26111 1
28723 26057 26112 1
28724 26062 26113 1
28725 26062 26114 1
28726 26063 26115 1
28727 26063 26116 1
28728 26064 26117 1
28729 26064 26118 1
28730 26072 26119 1
28731 26075 26120 1
28732 26081 26121 1
28733 26081 26122 1
28734 26082 26123 1
28735 26082 26124 1
28736 26083 26125 1
28737 26083 26126 1
28738 26084 26127 1
28739 26086 26128 1
28740 26087 26129 1
28741 26087 26130 1
28742 26090 26131 1
28743 26094 26132 1
28744 26096 26133 1
28745 26099 26134 1
28746 26100 26135 1
28747 26101 26136 1
28748 26102 26137 1
28749 26102 26138 1
28750 26102 26139 1
28751 26103 26140 1
28752 26104 26141 1
28753 26105 26142 1
28754 26105 26143 1
28755 26105 26144 1
28756 26106 26145 1
28757 26107 26146 1
28758 26108 26147 1
28759 26072 26148 1
28760 26075 26149 1
28761 26104 26150 1
28762 26151 26152 am
28763 26152 26153 am
28764 26153 26154 am
28765 26154 26155 am
28766 26155 26156 am
28767 26156 26151 am
28768 26157 26158 am
28769 26158 26159 1
28770 26153 26159 1
28771 26154 26157 1
28772 26160 26161 am
28773 26161 26162 am
28774 26162 26163 am
28775 26157 26163 am
28776 26158 26160 am
28777 26164 26165 1
28778 26165 26166 1
28779 26166 26167 1
28780 26162 26167 1
28781 26163 26164 1
28782 26168 26169 am
28783 26169 26170 am
28784 26161 26170 am
28785 26167 26168 am
28786 26171 26172 am
28787 26172 26173 am
28788 26160 26173 am
28789 26170 26171 am
28790 26174 26175 1
28791 26175 26176 am
28792 26176 26177 1
28793 26168 26177 1
28794 26169 26174 1
28795 26178 26179 am
28796 26179 26180 am
28797 26180 26181 am
28798 26175 26181 am
28799 26176 26178 am
28800 26182 26183 1
28801 26183 26184 1
28802 26184 26185 1
28803 26179 26185 1
28804 26180 26182 1
28805 26186 26187 am
28806 26187 26188 am
28807 26181 26186 am
28808 26182 26188 am
28809 26189 26190 1
28810 26190 26191 am
28811 26171 26191 am
28812 26172 26189 1
28813 26192 26193 am
28814 26193 26194 am
28815 26194 26195 am
28816 26190 26195 am
28817 26191 26192 am
28818 26196 26197 am
28819 26197 26198 am
28820 26198 26199 am
28821 26194 26199 am
28822 26195 26196 am
28823 26200 26201 am
28824 26201 26202 am
28825 26193 26202 am
28826 26199 26200 am
28827 26151 26203 1
28828 26156 26204 1
28829 26173 26205 1
28830 26197 26206 1
28831 26206 26207 1
28832 26187 26208 1
28833 26178 26209 1
28834 26200 26210 1
28835 26152 26211 1
28836 26155 26212 1
28837 26159 26213 1
28838 26159 26214 1
28839 26164 26215 1
28840 26164 26216 1
28841 26165 26217 1
28842 26165 26218 1
28843 26166 26219 1
28844 26166 26220 1
28845 26174 26221 1
28846 26177 26222 1
28847 26183 26223 1
28848 26183 26224 1
28849 26184 26225 1
28850 26184 26226 1
28851 26185 26227 1
28852 26185 26228 1
28853 26186 26229 1
28854 26188 26230 1
28855 26189 26231 1
28856 26189 26232 1
28857 26192 26233 1
28858 26196 26234 1
28859 26198 26235 1
28860 26201 26236 1
28861 26202 26237 1
28862 26203 26238 1
28863 26204 26239 1
28864 26204 26240 1
28865 26204 26241 1
28866 26205 26242 1
28867 26206 26243 1
28868 26207 26244 1
28869 26207 26245 1
28870 26207 26246 1
28871 26208 26247 1
28872 26209 26248 1
28873 26210 26249 1
28874 26174 26250 1
28875 26177 26251 1
28876 26206 26252 1
28877 26253 26254 am
28878 26254 26255 am
28879 26255 26256 am
28880 26256 26257 am
28881 26257 26258 am
28882 26258 26253 am
28883 26259 26260 am
28884 26260 26261 1
28885 26255 26261 1
28886 26256 26259 1
28887 26262 26263 am
28888 26263 26264 am
28889 26264 26265 am
28890 26259 26265 am
28891 26260 26262 am
28892 26266 26267 1
28893 26267 26268 1
28894 26268 26269 1
28895 26264 26269 1
28896 26265 26266 1
28897 26270 26271 am
28898 26271 26272 am
28899 26263 26272 am
28900 26269 26270 am
28901 26273 26274 am
28902 26274 26275 am
28903 26262 26275 am
28904 26272 26273 am
28905 26276 26277 1
28906 26277 26278 am
28907 26278 26279 1
28908 26270 26279 1
28909 26271 26276 1
28910 26280 26281 am
28911 26281 26282 am
28912 26282 26283 am
28913 26277 26283 am
28914 26278 26280 am
28915 26284 26285 1
28916 26285 26286 1
28917 26286 26287 1
28918 26281 26287 1
28919 26282 26284 1
28920 26288 26289 am
28921 26289 26290 am
28922 26283 26288 am
28923 26284 26290 am
28924 26291 26292 1
28925 26292 26293 am
28926 26273 26293 am
28927 26274 26291 1
28928 26294 26295 am
28929 26295 26296 am
28930 26296 26297 am
28931 26292 26297 am
28932 26293 26294 am
28933 26298 26299 am
28934 26299 26300 am
28935 26300 26301 am
28936 26296 26301 am
28937 26297 26298 am
28938 26302 26303 am
28939 26303 26304 am
28940 26295 26304 am
28941 26301 26302 am
28942 26253 26305 1
28943 26258 26306 1
28944 26275 26307 1
28945 26299 26308 1
28946 26308 26309 1
28947 26289 26310 1
28948 26280 26311 1
28949 26302 26312 1
28950 26254 26313 1
28951 26257 26314 1
28952 26261 26315 1
28953 26261 26316 1
28954 26266 26317 1
28955 26266 26318 1
28956 26267 26319 1
28957 26267 26320 1
28958 26268 26321 1
28959 26268 26322 1
28960 26276 26323 1
28961 26279 26324 1
28962 26285 26325 1
28963 26285 26326 1
28964 26286 26327 1
28965 26286 26328 1
28966 26287 26329 1
28967 26287 26330 1
28968 26288 26331 1
28969 26290 26332 1
28970 26291 26333 1
28971 26291 26334 1
28972 26294 26335 1
28973 26298 26336 1
28974 26300 26337 1
28975 26303 26338 1
28976 26304 26339 1
28977 26305 26340 1
28978 26306 26341 1
28979 26306 26342 1
28980 26306 26343 1
28981 26307 26344 1
28982 26308 26345 1
28983 26309 26346 1
28984 26309 26347 1
28985 26309 26348 1
28986 26310 26349 1
28987 26311 26350 1
28988 26312 26351 1
28989 26276 26352 1
28990 26279 26353 1
28991 26308 26354 1
28992 26355 26356 am
28993 26356 26357 am
28994 26357 26358 am
28995 26358 26359 am
28996 26359 26360 am
28997 26360 26355 am
28998 26361 26362 am
28999 26362 26363 1
29000 26357 26363 1
29001 26358 26361 1
29002 26364 26365 am
29003 26365 26366 am
29004 26366 26367 am
29005 26361 26367 am
29006 26362 26364 am
29007 26368 26369 1
29008 26369 26370 1
29009 26370 26371 1
29010 26366 26371 1
29011 26367 26368 1
29012 26372 26373 am
29013 26373 26374 am
29014 26365 26374 am
29015 26371 26372 am
29016 26375 26376 am
29017 26376 26377 am
29018 26364 26377 am
29019 26374 26375 am
29020 26378 26379 1
29021 26379 26380 am
29022 26380 26381 1
29023 26372 26381 1
29024 26373 26378 1
29025 26382 26383 am
29026 26383 26384 am
29027 26384 26385 am
29028 26379 26385 am
29029 26380 26382 am
29030 26386 26387 1
29031 26387 26388 1
29032 26388 26389 1
29033 26383 26389 1
29034 26384 26386 1
29035 26390 26391 am
29036 26391 26392 am
29037 26385 26390 am
29038 26386 26392 am
29039 26393 26394 1
29040 26394 26395 am
29041 26375 26395 am
29042 26376 26393 1
29043 26396 26397 am
29044 26397 26398 am
29045 26398 26399 am
29046 26394 26399 am
29047 26395 26396 am
29048 26400 26401 am
29049 26401 26402 am
29050 26402 26403 am
29051 26398 26403 am
29052 26399 26400 am
29053 26404 26405 am
29054 26405 26406 am
29055 26397 26406 am
29056 26403 26404 am
29057 26355 26407 1
29058 26360 26408 1
29059 26377 26409 1
29060 26401 26410 1
29061 26410 26411 1
29062 26391 26412 1
29063 26382 26413 1
29064 26404 26414 1
29065 26356 26415 1
29066 26359 26416 1
29067 26363 26417 1
29068 26363 26418 1
29069 26368 26419 1
29070 26368 26420 1
29071 26369 26421 1
29072 26369 26422 1
29073 26370 26423 1
29074 26370 26424 1
29075 26378 26425 1
29076 26381 26426 1
29077 26387 26427 1
29078 26387 26428 1
29079 26388 26429 1
29080 26388 26430 1
29081 26389 26431 1
29082 26389 26432 1
29083 26390 26433 1
29084 26392 26434 1
29085 26393 26435 1
29086 26393 26436 1
29087 26396 26437 1
29088 26400 26438 1
29089 26402 26439 1
29090 26405 26440 1
29091 26406 26441 1
29092 26407 26442 1
29093 26408 26443 1
29094 26408 26444 1
29095 26408 26445 1
29096 26409 26446 1
29097 26410 26447 1
29098 26411 26448 1
29099 26411 26449 1
29100 26411 26450 1
29101 26412 26451 1
29102 26413 26452 1
29103 26414 26453 1
29104 26378 26454 1
29105 26381 26455 1
29106 26410 26456 1
29107 26457 26458 am
29108 26458 26459 am
29109 26459 26460 am
29110 26460 26461 am
29111 26461 26462 am
29112 26462 26457 am
29113 26463 26464 am
29114 26464 26465 1
29115 26459 26465 1
29116 26460 26463 1
29117 26466 26467 am
29118 26467 26468 am
29119 26468 26469 am
29120 26463 26469 am
29121 26464 26466 am
29122 26470 26471 1
29123 26471 26472 1
29124 26472 26473 1
29125 26468 26473 1
29126 26469 26470 1
29127 26474 26475 am
29128 26475 26476 am
29129 26467 26476 am
29130 26473 26474 am
29131 26477 26478 am
29132 26478 26479 am
29133 26466 26479 am
29134 26476 26477 am
29135 26480 26481 1
29136 26481 26482 am
29137 26482 26483 1
29138 26474 26483 1
29139 26475 26480 1
29140 26484 26485 am
29141 26485 26486 am
29142 26486 26487 am
29143 26481 26487 am
29144 26482 26484 am
29145 26488 26489 1
29146 26489 26490 1
29147 26490 26491 1
29148 26485 26491 1
29149 26486 26488 1
29150 26492 26493 am
29151 26493 26494 am
29152 26487 26492 am
29153 26488 26494 am
29154 26495 26496 1
29155 26496 26497 am
29156 26477 26497 am
29157 26478 26495 1
29158 26498 26499 am
29159 26499 26500 am
29160 26500 26501 am
29161 26496 26501 am
29162 26497 26498 am
29163 26502 26503 am
29164 26503 26504 am
29165 26504 26505 am
29166 26500 26505 am
29167 26501 26502 am
29168 26506 26507 am
29169 26507 26508 am
29170 26499 26508 am
29171 26505 26506 am
29172 26457 26509 1
29173 26462 26510 1
29174 26479 26511 1
29175 26503 26512 1
29176 26512 26513 1
29177 26493 26514 1
29178 26484 26515 1
29179 26506 26516 1
29180 26458 26517 1
29181 26461 26518 1
29182 26465 26519 1
29183 26465 26520 1
29184 26470 26521 1
29185 26470 26522 1
29186 26471 26523 1
29187 26471 26524 1
29188 26472 26525 1
29189 26472 26526 1
29190 26480 26527 1
29191 26483 26528 1
29192 26489 26529 1
29193 26489 26530 1
29194 26490 26531 1
29195 26490 26532 1
29196 26491 26533 1
29197 26491 26534 1
29198 26492 26535 1
29199 26494 26536 1
29200 26495 26537 1
29201 26495 26538 1
29202 26498 26539 1
29203 26502 26540 1
29204 26504 26541 1
29205 26507 26542 1
29206 26508 26543 1
29207 26509 26544 1
29208 26510 26545 1
29209 26510 26546 1
29210 26510 26547 1
29211 26511 26548 1
29212 26512 26549 1
29213 26513 26550 1
29214 26513 26551 1
29215 26513 26552 1
29216 26514 26553 1
29217 26515 26554 1
29218 26516 26555 1
29219 26480 26556 1
29220 26483 26557 1
29221 26512 26558 1
29222 26559 26560 am
29223 26560 26561 am
29224 26561 26562 am
29225 26562 26563 am
29226 26563 26564 am
29227 26564 26559 am
29228 26565 26566 am
29229 26566 26567 1
29230 26561 26567 1
29231 26562 26565 1
29232 26568 26569 am
29233 26569 26570 am
29234 26570 26571 am
29235 26565 26571 am
29236 26566 26568 am
29237 26572 26573 1
29238 26573 26574 1
29239 26574 26575 1
29240 26570 26575 1
29241 26571 26572 1
29242 26576 26577 am
29243 26577 26578 am
29244 26569 26578 am
29245 26575 26576 am
29246 26579 26580 am
29247 26580 26581 am
29248 26568 26581 am
29249 26578 26579 am
29250 26582 26583 1
29251 26583 26584 am
29252 26584 26585 1
29253 26576 26585 1
29254 26577 26582 1
29255 26586 26587 am
29256 26587 26588 am
29257 26588 26589 am
29258 26583 26589 am
29259 26584 26586 am
29260 26590 26591 1
29261 26591 26592 1
29262 26592 26593 1
29263 26587 26593 1
29264 26588 26590 1
29265 26594 26595 am
29266 26595 26596 am
29267 26589 26594 am
29268 26590 26596 am
29269 26597 26598 1
29270 26598 26599 am
29271 26579 26599 am
29272 26580 26597 1
29273 26600 26601 am
29274 26601 26602 am
29275 26602 26603 am
29276 26598 26603 am
29277 26599 26600 am
29278 26604 26605 am
29279 26605 26606 am
29280 26606 26607 am
29281 26602 26607 am
29282 26603 26604 am
29283 26608 26609 am
29284 26609 26610 am
29285 26601 26610 am
29286 26607 26608 am
29287 26559 26611 1
29288 26564 26612 1
29289 26581 26613 1
29290 26605 26614 1
29291 26614 26615 1
29292 26595 26616 1
29293 26586 26617 1
29294 26608 26618 1
29295 26560 26619 1
29296 26563 26620 1
29297 26567 26621 1
29298 26567 26622 1
29299 26572 26623 1
29300 26572 26624 1
29301 26573 26625 1
29302 26573 26626 1
29303 26574 26627 1
29304 26574 26628 1
29305 26582 26629 1
29306 26585 26630 1
29307 26591 26631 1
29308 26591 26632 1
29309 26592 26633 1
29310 26592 26634 1
29311 26593 26635 1
29312 26593 26636 1
29313 26594 26637 1
29314 26596 26638 1
29315 26597 26639 1
29316 26597 26640 1
29317 26600 26641 1
29318 26604 26642 1
29319 26606 26643 1
29320 26609 26644 1
29321 26610 26645 1
29322 26611 26646 1
29323 26612 26647 1
29324 26612 26648 1
29325 26612 26649 1
29326 26613 26650 1
29327 26614 26651 1
29328 26615 26652 1
29329 26615 26653 1
29330 26615 26654 1
29331 26616 26655 1
29332 26617 26656 1
29333 26618 26657 1
29334 26582 26658 1
29335 26585 26659 1
29336 26614 26660 1
29337 26661 26662 am
29338 26662 26663 am
29339 26663 26664 am
29340 26664 26665 am
29341 26665 26666 am
29342 26666 26661 am
29343 26667 26668 am
29344 26668 26669 1
29345 26663 26669 1
29346 26664 26667 1
29347 26670 26671 am
29348 26671 26672 am
29349 26672 26673 am
29350 26667 26673 am
29351 26668 26670 am
29352 26674 26675 1
29353 26675 26676 1
29354 26676 26677 1
29355 26672 26677 1
29356 26673 26674 1
29357 26678 26679 am
29358 26679 26680 am
29359 26671 26680 am
29360 26677 26678 am
29361 26681 26682 am
29362 26682 26683 am
29363 26670 26683 am
29364 26680 26681 am
29365 26684 26685 1
29366 26685 26686 am
29367 26686 26687 1
29368 26678 26687 1
29369 26679 26684 1
29370 26688 26689 am
29371 26689 26690 am
29372 26690 26691 am
29373 26685 26691 am
29374 26686 26688 am
29375 26692 26693 1
29376 26693 26694 1
29377 26694 26695 1
29378 26689 26695 1
29379 26690 26692 1
29380 26696 26697 am
29381 26697 26698 am
29382 26691 26696 am
29383 26692 26698 am
29384 26699 26700 1
29385 26700 26701 am
29386 26681 26701 am
29387 26682 26699 1
29388 26702 26703 am
29389 26703 26704 am
29390 26704 26705 am
29391 26700 26705 am
29392 26701 26702 am
29393 26706 26707 am
29394 26707 26708 am
29395 26708 26709 am
29396 26704 26709 am
29397 26705 26706 am
29398 26710 26711 am
29399 26711 26712 am
29400 26703 26712 am
29401 26709 26710 am
29402 26661 26713 1
29403 26666 26714 1
29404 26683 26715 1
29405 26707 26716 1
29406 26716 26717 1
29407 26697 26718 1
29408 26688 26719 1
29409 26710 26720 1
29410 26662 26721 1
29411 26665 26722 1
29412 26669 26723 1
29413 26669 26724 1
29414 26674 26725 1
29415 26674 26726 1
29416 26675 26727 1
29417 26675 26728 1
29418 26676 26729 1
29419 26676 26730 1
29420 26684 26731 1
29421 26687 26732 1
29422 26693 26733 1
29423 26693 26734 1
29424 26694 26735 1
29425 26694 26736 1
29426 26695 26737 1
29427 26695 26738 1
29428 26696 26739 1
29429 26698 26740 1
29430 26699 26741 1
29431 26699 26742 1
29432 26702 26743 1
29433 26706 26744 1
29434 26708 26745 1
29435 26711 26746 1
29436 26712 26747 1
29437 26713 26748 1
29438 26714 26749 1
29439 26714 26750 1
29440 26714 26751 1
29441 26715 26752 1
29442 26716 26753 1
29443 26717 26754 1
29444 26717 26755 1
29445 26717 26756 1
29446 26718 26757 1
29447 26719 26758 1
29448 26720 26759 1
29449 26684 26760 1
29450 26687 26761 1
29451 26716 26762 1
29452 26763 26764 am
29453 26764 26765 am
29454 26765 26766 am
29455 26766 26767 am
29456 26767 26768 am
29457 26768 26763 am
29458 26769 26770 am
29459 26770 26771 1
29460 26765 26771 1
29461 26766 26769 1
29462 26772 26773 am
29463 26773 26774 am
29464 26774 26775 am
29465 26769 26775 am
29466 26770 26772 am
29467 26776 26777 1
29468 26777 26778 1
29469 26778 26779 1
29470 26774 26779 1
29471 26775 26776 1
29472 26780 26781 am
29473 26781 26782 am
29474 26773 26782 am
29475 26779 26780 am
29476 26783 26784 am
29477 26784 26785 am
29478 26772 26785 am
29479 26782 26783 am
29480 26786 26787 1
29481 26787 26788 am
29482 26788 26789 1
29483 26780 26789 1
29484 26781 26786 1
29485 26790 26791 am
29486 26791 26792 am
29487 26792 26793 am
29488 26787 26793 am
29489 26788 26790 am
29490 26794 26795 1
29491 26795 26796 1
29492 26796 26797 1
29493 26791 26797 1
29494 26792 26794 1
29495 26798 26799 am
29496 26799 26800 am
29497 26793 26798 am
29498 26794 26800 am
29499 26801 26802 1
29500 26802 26803 am
29501 26783 26803 am
29502 26784 26801 1
29503 26804 26805 am
29504 26805 26806 am
29505 26806 26807 am
29506 26802 26807 am
29507 26803 26804 am
29508 26808 26809 am
29509 26809 26810 am
29510 26810 26811 am
29511 26806 26811 am
29512 26807 26808 am
29513 26812 26813 am
29514 26813 26814 am
29515 26805 26814 am
29516 26811 26812 am
29517 26763 26815 1
29518 26768 26816 1
29519 26785 26817 1
29520 26809 26818 1
29521 26818 26819 1
29522 26799 26820 1
29523 26790 26821 1
29524 26812 26822 1
29525 26764 26823 1
29526 26767 26824 1
29527 26771 26825 1
29528 26771 26826 1
29529 26776 26827 1
29530 26776 26828 1
29531 26777 26829 1
29532 26777 26830 1
29533 26778 26831 1
29534 26778 26832 1
29535 26786 26833 1
29536 26789 26834 1
29537 26795 26835 1
29538 26795 26836 1
29539 26796 26837 1
29540 26796 26838 1
29541 26797 26839 1
29542 26797 26840 1
29543 26798 26841 1
29544 26800 26842 1
29545 26801 26843 1
29546 26801 26844 1
29547 26804 26845 1
29548 26808 26846 1
29549 26810 26847 1
29550 26813 26848 1
29551 26814 26849 1
29552 26815 26850 1
29553 26816 26851 1
29554 26816 26852 1
29555 26816 26853 1
29556 26817 26854 1
29557 26818 26855 1
29558 26819 26856 1
29559 26819 26857 1
29560 26819 26858 1
29561 26820 26859 1
29562 26821 26860 1
29563 26822 26861 1
29564 26786 26862 1
29565 26789 26863 1
29566 26818 26864 1
29567 26865 26866 am
29568 26866 26867 am
29569 26867 26868 am
29570 26868 26869 am
29571 26869 26870 am
29572 26870 26865 am
29573 26871 26872 am
29574 26872 26873 1
29575 26867 26873 1
29576 26868 26871 1
29577 26874 26875 am
29578 26875 26876 am
29579 26876 26877 am
29580 26871 26877 am
29581 26872 26874 am
29582 26878 26879 1
29583 26879 26880 1
29584 26880 26881 1
29585 26876 26881 1
29586 26877 26878 1
29587 26882 26883 am
29588 26883 26884 am
29589 26875 26884 am
29590 26881 26882 am
29591 26885 26886 am
29592 26886 26887 am
29593 26874 26887 am
29594 26884 26885 am
29595 26888 26889 1
29596 26889 26890 am
29597 26890 26891 1
29598 26882 26891 1
29599 26883 26888 1
29600 26892 26893 am
29601 26893 26894 am
29602 26894 26895 am
29603 26889 26895 am
29604 26890 26892 am
29605 26896 26897 1
29606 26897 26898 1
29607 26898 26899 1
29608 26893 26899 1
29609 26894 26896 1
29610 26900 26901 am
29611 26901 26902 am
29612 26895 26900 am
29613 26896 26902 am
29614 26903 26904 1
29615 26904 26905 am
29616 26885 26905 am
29617 26886 26903 1
29618 26906 26907 am
29619 26907 26908 am
29620 26908 26909 am
29621 26904 26909 am
29622 26905 26906 am
29623 26910 26911 am
29624 26911 26912 am
29625 26912 26913 am
29626 26908 26913 am
29627 26909 26910 am
29628 26914 26915 am
29629 26915 26916 am
29630 26907 26916 am
29631 26913 26914 am
29632 26865 26917 1
29633 26870 26918 1
29634 26887 26919 1
29635 26911 26920 1
29636 26920 26921 1
29637 26901 26922 1
29638 26892 26923 1
29639 26914 26924 1
29640 26866 26925 1
29641 26869 26926 1
29642 26873 26927 1
29643 26873 26928 1
29644 26878 26929 1
29645 26878 26930 1
29646 26879 26931 1
29647 26879 26932 1
29648 26880 26933 1
29649 26880 26934 1
29650 26888 26935 1
29651 26891 26936 1
29652 26897 26937 1
29653 26897 26938 1
29654 26898 26939 1
29655 26898 26940 1
29656 26899 26941 1
29657 26899 26942 1
29658 26900 26943 1
29659 26902 26944 1
29660 26903 26945 1
29661 26903 26946 1
29662 26906 26947 1
29663 26910 26948 1
29664 26912 26949 1
29665 26915 26950 1
29666 26916 26951 1
29667 26917 26952 1
29668 26918 26953 1
29669 26918 26954 1
29670 26918 26955 1
29671 26919 26956 1
29672 26920 26957 1
29673 26921 26958 1
29674 26921 26959 1
29675 26921 26960 1
29676 26922 26961 1
29677 26923 26962 1
29678 26924 26963 1
29679 26888 26964 1
29680 26891 26965 1
29681 26920 26966 1
29682 26967 26968 am
29683 26968 26969 am
29684 26969 26970 am
29685 26970 26971 am
29686 26971 26972 am
29687 26972 26967 am
29688 26973 26974 am
29689 26974 26975 1
29690 26969 26975 1
29691 26970 26973 1
29692 26976 26977 am
29693 26977 26978 am
29694 26978 26979 am
29695 26973 26979 am
29696 26974 26976 am
29697 26980 26981 1
29698 26981 26982 1
29699 26982 26983 1
29700 26978 26983 1
29701 26979 26980 1
29702 26984 26985 am
29703 26985 26986 am
29704 26977 26986 am
29705 26983 26984 am
29706 26987 26988 am
29707 26988 26989 am
29708 26976 26989 am
29709 26986 26987 am
29710 26990 26991 1
29711 26991 26992 am
29712 26992 26993 1
29713 26984 26993 1
29714 26985 26990 1
29715 26994 26995 am
29716 26995 26996 am
29717 26996 26997 am
29718 26991 26997 am
29719 26992 26994 am
29720 26998 26999 1
29721 26999 27000 1
29722 27000 27001 1
29723 26995 27001 1
29724 26996 26998 1
29725 27002 27003 am
29726 27003 27004 am
29727 26997 27002 am
29728 26998 27004 am
29729 27005 27006 1
29730 27006 27007 am
29731 26987 27007 am
29732 26988 27005 1
29733 27008 27009 am
29734 27009 27010 am
29735 27010 27011 am
29736 27006 27011 am
29737 27007 27008 am
29738 27012 27013 am
29739 27013 27014 am
29740 27014 27015 am
29741 27010 27015 am
29742 27011 27012 am
29743 27016 27017 am
29744 27017 27018 am
29745 27009 27018 am
29746 27015 27016 am
29747 26967 27019 1
29748 26972 27020 1
29749 26989 27021 1
29750 27013 27022 1
29751 27022 27023 1
29752 27003 27024 1
29753 26994 27025 1
29754 27016 27026 1
29755 26968 27027 1
29756 26971 27028 1
29757 26975 27029 1
29758 26975 27030 1
29759 26980 27031 1
29760 26980 27032 1
29761 26981 27033 1
29762 26981 27034 1
29763 26982 27035 1
29764 26982 27036 1
29765 26990 27037 1
29766 26993 27038 1
29767 26999 27039 1
29768 26999 27040 1
29769 27000 27041 1
29770 27000 27042 1
29771 27001 27043 1
29772 27001 27044 1
29773 27002 27045 1
29774 27004 27046 1
29775 27005 27047 1
29776 27005 27048 1
29777 27008 27049 1
29778 27012 27050 1
29779 27014 27051 1
29780 27017 27052 1
29781 27018 27053 1
29782 27019 27054 1
29783 27020 27055 1
29784 27020 27056 1
29785 27020 27057 1
29786 27021 27058 1
29787 27022 27059 1
29788 27023 27060 1
29789 27023 27061 1
29790 27023 27062 1
29791 27024 27063 1
29792 27025 27064 1
29793 27026 27065 1
29794 26990 27066 1
29795 26993 27067 1
29796 27022 27068 1
29797 27069 27070 am
29798 27070 27071 am
29799 27071 27072 am
29800 27072 27073 am
29801 27073 27074 am
29802 27074 27069 am
29803 27075 27076 am
29804 27076 27077 1
29805 27071 27077 1
29806 27072 27075 1
29807 27078 27079 am
29808 27079 27080 am
29809 27080 27081 am
29810 27075 27081 am
29811 27076 27078 am
29812 27082 27083 1
29813 27083 27084 1
29814 27084 27085 1
29815 27080 27085 1
29816 27081 27082 1
29817 27086 27087 am
29818 27087 27088 am
29819 27079 27088 am
29820 27085 27086 am
29821 27089 27090 am
29822 27090 27091 am
29823 27078 27091 am
29824 27088 27089 am
29825 27092 27093 1
29826 27093 27094 am
29827 27094 27095 1
29828 27086 27095 1
29829 27087 27092 1
29830 27096 27097 am
29831 27097 27098 am
29832 27098 27099 am
29833 27093 27099 am
29834 27094 27096 am
29835 27100 27101 1
29836 27101 27102 1
29837 27102 27103 1
29838 27097 27103 1
29839 27098 27100 1
29840 27104 27105 am
29841 27105 27106 am
29842 27099 27104 am
29843 27100 27106 am
29844 27107 27108 1
29845 27108 27109 am
29846 27089 27109 am
29847 27090 27107 1
29848 27110 27111 am
29849 27111 27112 am
29850 27112 27113 am
29851 27108 27113 am
29852 27109 27110 am
29853 27114 27115 am
29854 27115 27116 am
29855 27116 27117 am
29856 27112 27117 am
29857 27113 27114 am
29858 27118 27119 am
29859 27119 27120 am
29860 27111 27120 am
29861 27117 27118 am
29862 27069 27121 1
29863 27074 27122 1
29864 27091 27123 1
29865 27115 27124 1
29866 27124 27125 1
29867 27105 27126 1
29868 27096 27127 1
29869 27118 27128 1
29870 27070 27129 1
29871 27073 27130 1
29872 27077 27131 1
29873 27077 27132 1
29874 27082 27133 1
29875 27082 27134 1
29876 27083 27135 1
29877 27083 27136 1
29878 27084 27137 1
29879 27084 27138 1
29880 27092 27139 1
29881 27095 27140 1
29882 27101 27141 1
29883 27101 27142 1
29884 27102 27143 1
29885 27102 27144 1
29886 27103 27145 1
29887 27103 27146 1
29888 27104 27147 1
29889 27106 27148 1
29890 27107 27149 1
29891 27107 27150 1
29892 27110 27151 1
29893 27114 27152 1
29894 27116 27153 1
29895 27119 27154 1
29896 27120 27155 1
29897 27121 27156 1
29898 27122 27157 1
29899 27122 27158 1
29900 27122 27159 1
29901 27123 27160 1
29902 27124 27161 1
29903 27125 27162 1
29904 27125 27163 1
29905 27125 27164 1
29906 27126 27165 1
29907 27127 27166 1
29908 27128 27167 1
29909 27092 27168 1
29910 27095 27169 1
29911 27124 27170 1
29912 27171 27172 am
29913 27172 27173 am
29914 27173 27174 am
29915 27174 27175 am
29916 27175 27176 am
29917 27176 27171 am
29918 27177 27178 am
29919 27178 27179 1
29920 27173 27179 1
29921 27174 27177 1
29922 27180 27181 am
29923 27181 27182 am
29924 27182 27183 am
29925 27177 27183 am
29926 27178 27180 am
29927 27184 27185 1
29928 27185 27186 1
29929 27186 27187 1
29930 27182 27187 1
29931 27183 27184 1
29932 27188 27189 am
29933 27189 27190 am
29934 27181 27190 am
29935 27187 27188 am
29936 27191 27192 am
29937 27192 27193 am
29938 27180 27193 am
29939 27190 27191 am
29940 27194 27195 1
29941 27195 27196 am
29942 27196 27197 1
29943 27188 27197 1
29944 27189 27194 1
29945 27198 27199 am
29946 27199 27200 am
29947 27200 27201 am
29948 27195 27201 am
29949 27196 27198 am
29950 27202 27203 1
29951 27203 27204 1
29952 27204 27205 1
29953 27199 27205 1
29954 27200 27202 1
29955 27206 27207 am
29956 27207 27208 am
29957 27201 27206 am
29958 27202 27208 am
29959 27209 27210 1
29960 27210 27211 am
29961 27191 27211 am
29962 27192 27209 1
29963 27212 27213 am
29964 27213 27214 am
29965 27214 27215 am
29966 27210 27215 am
29967 27211 27212 am
29968 27216 27217 am
29969 27217 27218 am
29970 27218 27219 am
29971 27214 27219 am
29972 27215 27216 am
29973 27220 27221 am
29974 27221 27222 am
29975 27213 27222 am
29976 27219 27220 am
29977 27171 27223 1
29978 27176 27224 1
29979 27193 27225 1
29980 27217 27226 1
29981 27226 27227 1
29982 27207 27228 1
29983 27198 27229 1
29984 27220 27230 1
29985 27172 27231 1
29986 27175 27232 1
29987 27179 27233 1
29988 27179 27234 1
29989 27184 27235 1
29990 27184 27236 1
29991 27185 27237 1
29992 27185 27238 1
29993 27186 27239 1
29994 27186 27240 1
29995 27194 27241 1
29996 27197 27242 1
29997 27203 27243 1
29998 27203 27244 1
29999 27204 27245 1
30000 27204 27246 1
30001 27205 27247 1
30002 27205 27248 1
30003 27206 27249 1
30004 27208 27250 1
30005 27209 27251 1
30006 27209 27252 1
30007 27212 27253 1
30008 27216 27254 1
30009 27218 27255 1
30010 27221 27256 1
30011 27222 27257 1
30012 27223 27258 1
30013 27224 27259 1
30014 27224 27260 1
30015 27224 27261 1
30016 27225 27262 1
30017 27226 27263 1
30018 27227 27264 1
30019 27227 27265 1
30020 27227 27266 1
30021 27228 27267 1
30022 27229 27268 1
30023 27230 27269 1
30024 27194 27270 1
30025 27197 27271 1
30026 27226 27272 1
30027 27273 27274 am
30028 27274 27275 am
30029 27275 27276 am
30030 27276 27277 am
30031 27277 27278 am
30032 27278 27273 am
30033 27279 27280 am
30034 27280 27281 1
30035 27275 27281 1
30036 27276 27279 1
30037 27282 27283 am
30038 27283 27284 am
30039 27284 27285 am
30040 27279 27285 am
30041 27280 27282 am
30042 27286 27287 1
30043 27287 27288 1
30044 27288 27289 1
30045 27284 27289 1
30046 27285 27286 1
30047 27290 27291 am
30048 27291 27292 am
30049 27283 27292 am
30050 27289 27290 am
30051 27293 27294 am
30052 27294 27295 am
30053 27282 27295 am
30054 27292 27293 am
30055 27296 27297 1
30056 27297 27298 am
30057 27298 27299 1
30058 27290 27299 1
30059 27291 27296 1
30060 27300 27301 am
30061 27301 27302 am
30062 27302 27303 am
30063 27297 27303 am
30064 27298 27300 am
30065 27304 27305 1
30066 27305 27306 1
30067 27306 27307 1
30068 27301 27307 1
30069 27302 27304 1
30070 27308 27309 am
30071 27309 27310 am
30072 27303 27308 am
30073 27304 27310 am
30074 27311 27312 1
30075 27312 27313 am
30076 27293 27313 am
30077 27294 27311 1
30078 27314 27315 am
30079 27315 27316 am
30080 27316 27317 am
30081 27312 27317 am
30082 27313 27314 am
30083 27318 27319 am
30084 27319 27320 am
30085 27320 27321 am
30086 27316 27321 am
30087 27317 27318 am
30088 27322 27323 am
30089 27323 27324 am
30090 27315 27324 am
30091 27321 27322 am
30092 27273 27325 1
30093 27278 27326 1
30094 27295 27327 1
30095 27319 27328 1
30096 27328 27329 1
30097 27309 27330 1
30098 27300 27331 1
30099 27322 27332 1
30100 27274 27333 1
30101 27277 27334 1
30102 27281 27335 1
30103 27281 27336 1
30104 27286 27337 1
30105 27286 27338 1
30106 27287 27339 1
30107 27287 27340 1
30108 27288 27341 1
30109 27288 27342 1
30110 27296 27343 1
30111 27299 27344 1
30112 27305 27345 1
30113 27305 27346 1
30114 27306 27347 1
30115 27306 27348 1
30116 27307 27349 1
30117 27307 27350 1
30118 27308 27351 1
30119 27310 27352 1
30120 27311 27353 1
30121 27311 27354 1
30122 27314 27355 1
30123 27318 27356 1
30124 27320 27357 1
30125 27323 27358 1
30126 27324 27359 1
30127 27325 27360 1
30128 27326 27361 1
30129 27326 27362 1
30130 27326 27363 1
30131 27327 27364 1
30132 27328 27365 1
30133 27329 27366 1
30134 27329 27367 1
30135 27329 27368 1
30136 27330 27369 1
30137 27331 27370 1
30138 27332 27371 1
30139 27296 27372 1
30140 27299 27373 1
30141 27328 27374 1
30142 27375 27376 am
30143 27376 27377 am
30144 27377 27378 am
30145 27378 27379 am
30146 27379 27380 am
30147 27380 27375 am
30148 27381 27382 am
30149 27382 27383 1
30150 27377 27383 1
30151 27378 27381 1
30152 27384 27385 am
30153 27385 27386 am
30154 27386 27387 am
30155 27381 27387 am
30156 27382 27384 am
30157 27388 27389 1
30158 27389 27390 1
30159 27390 27391 1
30160 27386 27391 1
30161 27387 27388 1
30162 27392 27393 am
30163 27393 27394 am
30164 27385 27394 am
30165 27391 27392 am
30166 27395 27396 am
30167 27396 27397 am
30168 27384 27397 am
30169 27394 27395 am
30170 27398 27399 1
30171 27399 27400 am
30172 27400 27401 1
30173 27392 27401 1
30174 27393 27398 1
30175 27402 27403 am
30176 27403 27404 am
30177 27404 27405 am
30178 27399 27405 am
30179 27400 27402 am
30180 27406 27407 1
30181 27407 27408 1
30182 27408 27409 1
30183 27403 27409 1
30184 27404 27406 1
30185 27410 27411 am
30186 27411 27412 am
30187 27405 27410 am
30188 27406 27412 am
30189 27413 27414 1
30190 27414 27415 am
30191 27395 27415 am
30192 27396 27413 1
30193 27416 27417 am
30194 27417 27418 am
30195 27418 27419 am
30196 27414 27419 am
30197 27415 27416 am
30198 27420 27421 am
30199 27421 27422 am
30200 27422 27423 am
30201 27418 27423 am
30202 27419 27420 am
30203 27424 27425 am
30204 27425 27426 am
30205 27417 27426 am
30206 27423 27424 am
30207 27375 27427 1
30208 27380 27428 1
30209 27397 27429 1
30210 27421 27430 1
30211 27430 27431 1
30212 27411 27432 1
30213 27402 27433 1
30214 27424 27434 1
30215 27376 27435 1
30216 27379 27436 1
30217 27383 27437 1
30218 27383 27438 1
30219 27388 27439 1
30220 27388 27440 1
30221 27389 27441 1
30222 27389 27442 1
30223 27390 27443 1
30224 27390 27444 1
30225 27398 27445 1
30226 27401 27446 1
30227 27407 27447 1
30228 27407 27448 1
30229 27408 27449 1
30230 27408 27450 1
30231 27409 27451 1
30232 27409 27452 1
30233 27410 27453 1
30234 27412 27454 1
30235 27413 27455 1
30236 27413 27456 1
30237 27416 27457 1
30238 27420 27458 1
30239 27422 27459 1
30240 27425 27460 1
30241 27426 27461 1
30242 27427 27462 1
30243 27428 27463 1
30244 27428 27464 1
30245 27428 27465 1
30246 27429 27466 1
30247 27430 27467 1
30248 27431 27468 1
30249 27431 27469 1
30250 27431 27470 1
30251 27432 27471 1
30252 27433 27472 1
30253 27434 27473 1
30254 27398 27474 1
30255 27401 27475 1
30256 27430 27476 1
30257 27477 27478 am
30258 27478 27479 am
30259 27479 27480 am
30260 27480 27481 am
30261 27481 27482 am
30262 27482 27477 am
30263 27483 27484 am
30264 27484 27485 1
30265 27479 27485 1
30266 27480 27483 1
30267 27486 27487 am
30268 27487 27488 am
30269 27488 27489 am
30270 27483 27489 am
30271 27484 27486 am
30272 27490 27491 1
30273 27491 27492 1
30274 27492 27493 1
30275 27488 27493 1
30276 27489 27490 1
30277 27494 27495 am
30278 27495 27496 am
30279 27487 27496 am
30280 27493 27494 am
30281 27497 27498 am
30282 27498 27499 am
30283 27486 27499 am
30284 27496 27497 am
30285 27500 27501 1
30286 27501 27502 am
30287 27502 27503 1
30288 27494 27503 1
30289 27495 27500 1
30290 27504 27505 am
30291 27505 27506 am
30292 27506 27507 am
30293 27501 27507 am
30294 27502 27504 am
30295 27508 27509 1
30296 27509 27510 1
30297 27510 27511 1
30298 27505 27511 1
30299 27506 27508 1
30300 27512 27513 am
30301 27513 27514 am
30302 27507 27512 am
30303 27508 27514 am
30304 27515 27516 1
30305 27516 27517 am
30306 27497 27517 am
30307 27498 27515 1
30308 27518 27519 am
30309 27519 27520 am
30310 27520 27521 am
30311 27516 27521 am
30312 27517 27518 am
30313 27522 27523 am
30314 27523 27524 am
30315 27524 27525 am
30316 27520 27525 am
30317 27521 27522 am
30318 27526 27527 am
30319 27527 27528 am
30320 27519 27528 am
30321 27525 27526 am
30322 27477 27529 1
30323 27482 27530 1
30324 27499 27531 1
30325 27523 27532 1
30326 27532 27533 1
30327 27513 27534 1
30328 27504 27535 1
30329 27526 27536 1
30330 27478 27537 1
30331 27481 27538 1
30332 27485 27539 1
30333 27485 27540 1
30334 27490 27541 1
30335 27490 27542 1
30336 27491 27543 1
30337 27491 27544 1
30338 27492 27545 1
30339 27492 27546 1
30340 27500 27547 1
30341 27503 27548 1
30342 27509 27549 1
30343 27509 27550 1
30344 27510 27551 1
30345 27510 27552 1
30346 27511 27553 1
30347 27511 27554 1
30348 27512 27555 1
30349 27514 27556 1
30350 27515 27557 1
30351 27515 27558 1
30352 27518 27559 1
30353 27522 27560 1
30354 27524 27561 1
30355 27527 27562 1
30356 27528 27563 1
30357 27529 27564 1
30358 27530 27565 1
30359 27530 27566 1
30360 27530 27567 1
30361 27531 27568 1
30362 27532 27569 1
30363 27533 27570 1
30364 27533 27571 1
30365 27533 27572 1
30366 27534 27573 1
30367 27535 27574 1
30368 27536 27575 1
30369 27500 27576 1
30370 27503 27577 1
30371 27532 27578 1
30372 27579 27580 am
30373 27580 27581 am
30374 27581 27582 am
30375 27582 27583 am
30376 27583 27584 am
30377 27584 27579 am
30378 27585 27586 am
30379 27586 27587 1
30380 27581 27587 1
30381 27582 27585 1
30382 27588 27589 am
30383 27589 27590 am
30384 27590 27591 am
30385 27585 27591 am
30386 27586 27588 am
30387 27592 27593 1
30388 27593 27594 1
30389 27594 27595 1
30390 27590 27595 1
30391 27591 27592 1
30392 27596 27597 am
30393 27597 27598 am
30394 27589 27598 am
30395 27595 27596 am
30396 27599 27600 am
30397 27600 27601 am
30398 27588 27601 am
30399 27598 27599 am
30400 27602 27603 1
30401 27603 27604 am
30402 27604 27605 1
30403 27596 27605 1
30404 27597 27602 1
30405 27606 27607 am
30406 27607 27608 am
30407 27608 27609 am
30408 27603 27609 am
30409 27604 27606 am
30410 27610 27611 1
30411 27611 27612 1
30412 27612 27613 1
30413 27607 27613 1
30414 27608 27610 1
30415 27614 27615 am
30416 27615 27616 am
30417 27609 27614 am
30418 27610 27616 am
30419 27617 27618 1
30420 27618 27619 am
30421 27599 27619 am
30422 27600 27617 1
30423 27620 27621 am
30424 27621 27622 am
30425 27622 27623 am
30426 27618 27623 am
30427 27619 27620 am
30428 27624 27625 am
30429 27625 27626 am
30430 27626 27627 am
30431 27622 27627 am
30432 27623 27624 am
30433 27628 27629 am
30434 27629 27630 am
30435 27621 27630 am
30436 27627 27628 am
30437 27579 27631 1
30438 27584 27632 1
30439 27601 27633 1
30440 27625 27634 1
30441 27634 27635 1
30442 27615 27636 1
30443 27606 27637 1
30444 27628 27638 1
30445 27580 27639 1
30446 27583 27640 1
30447 27587 27641 1
30448 27587 27642 1
30449 27592 27643 1
30450 27592 27644 1
30451 27593 27645 1
30452 27593 27646 1
30453 27594 27647 1
30454 27594 27648 1
30455 27602 27649 1
30456 27605 27650 1
30457 27611 27651 1
30458 27611 27652 1
30459 27612 27653 1
30460 27612 27654 1
30461 27613 27655 1
30462 27613 27656 1
30463 27614 27657 1
30464 27616 27658 1
30465 27617 27659 1
30466 27617 27660 1
30467 27620 27661 1
30468 27624 27662 1
30469 27626 27663 1
30470 27629 27664 1
30471 27630 27665 1
30472 27631 27666 1
30473 27632 27667 1
30474 27632 27668 1
30475 27632 27669 1
30476 27633 27670 1
30477 27634 27671 1
30478 27635 27672 1
30479 27635 27673 1
30480 27635 27674 1
30481 27636 27675 1
30482 27637 27676 1
30483 27638 27677 1
30484 27602 27678 1
30485 27605 27679 1
30486 27634 27680 1
30487 27681 27682 am
30488 27682 27683 am
30489 27683 27684 am
30490 27684 27685 am
30491 27685 27686 am
30492 27686 27681 am
30493 27687 27688 am
30494 27688 27689 1
30495 27683 27689 1
30496 27684 27687 1
30497 27690 27691 am
30498 27691 27692 am
30499 27692 27693 am
30500 27687 27693 am
30501 27688 27690 am
30502 27694 27695 1
30503 27695 27696 1
30504 27696 27697 1
30505 27692 27697 1
30506 27693 27694 1
30507 27698 27699 am
30508 27699 27700 am
30509 27691 27700 am
30510 27697 27698 am
30511 27701 27702 am
30512 27702 27703 am
30513 27690 27703 am
30514 27700 27701 am
30515 27704 27705 1
30516 27705 27706 am
30517 27706 27707 1
30518 27698 27707 1
30519 27699 27704 1
30520 27708 27709 am
30521 27709 27710 am
30522 27710 27711 am
30523 27705 27711 am
30524 27706 27708 am
30525 27712 27713 1
30526 27713 27714 1
30527 27714 27715 1
30528 27709 27715 1
30529 27710 27712 1
30530 27716 27717 am
30531 27717 27718 am
30532 27711 27716 am
30533 27712 27718 am
30534 27719 27720 1
30535 27720 27721 am
30536 27701 27721 am
30537 27702 27719 1
30538 27722 27723 am
30539 27723 27724 am
30540 27724 27725 am
30541 27720 27725 am
30542 27721 27722 am
30543 27726 27727 am
30544 27727 27728 am
30545 27728 27729 am
30546 27724 27729 am
30547 27725 27726 am
30548 27730 27731 am
30549 27731 27732 am
30550 27723 27732 am
30551 27729 27730 am
30552 27681 27733 1
30553 27686 27734 1
30554 27703 27735 1
30555 27727 27736 1
30556 27736 27737 1
30557 27717 27738 1
30558 27708 27739 1
30559 27730 27740 1
30560 27682 27741 1
30561 27685 27742 1
30562 27689 27743 1
30563 27689 27744 1
30564 27694 27745 1
30565 27694 27746 1
30566 27695 27747 1
30567 27695 27748 1
30568 27696 27749 1
30569 27696 27750 1
30570 27704 27751 1
30571 27707 27752 1
30572 27713 27753 1
30573 27713 27754 1
30574 27714 27755 1
30575 27714 27756 1
30576 27715 27757 1
30577 27715 27758 1
30578 27716 27759 1
30579 27718 27760 1
30580 27719 27761 1
30581 27719 27762 1
30582 27722 27763 1
30583 27726 27764 1
30584 27728 27765 1
30585 27731 27766 1
30586 27732 27767 1
30587 27733 27768 1
30588 27734 27769 1
30589 27734 27770 1
30590 27734 27771 1
30591 27735 27772 1
30592 27736 27773 1
30593 27737 27774 1
30594 27737 27775 1
30595 27737 27776 1
30596 27738 27777 1
30597 27739 27778 1
30598 27740 27779 1
30599 27704 27780 1
30600 27707 27781 1
30601 27736 27782 1
30602 27783 27784 am
30603 27784 27785 am
30604 27785 27786 am
30605 27786 27787 am
30606 27787 27788 am
30607 27788 27783 am
30608 27789 27790 am
30609 27790 27791 1
30610 27785 27791 1
30611 27786 27789 1
30612 27792 27793 am
30613 27793 27794 am
30614 27794 27795 am
30615 27789 27795 am
30616 27790 27792 am
30617 27796 27797 1
30618 27797 27798 1
30619 27798 27799 1
30620 27794 27799 1
30621 27795 27796 1
30622 27800 27801 am
30623 27801 27802 am
30624 27793 27802 am
30625 27799 27800 am
30626 27803 27804 am
30627 27804 27805 am
30628 27792 27805 am
30629 27802 27803 am
30630 27806 27807 1
30631 27807 27808 am
30632 27808 27809 1
30633 27800 27809 1
30634 27801 27806 1
30635 27810 27811 am
30636 27811 27812 am
30637 27812 27813 am
30638 27807 27813 am
30639 27808 27810 am
30640 27814 27815 1
30641 27815 27816 1
30642 27816 27817 1
30643 27811 27817 1
30644 27812 27814 1
30645 27818 27819 am
30646 27819 27820 am
30647 27813 27818 am
30648 27814 27820 am
30649 27821 27822 1
30650 27822 27823 am
30651 27803 27823 am
30652 27804 27821 1
30653 27824 27825 am
30654 27825 27826 am
30655 27826 27827 am
30656 27822 27827 am
30657 27823 27824 am
30658 27828 27829 am
30659 27829 27830 am
30660 27830 27831 am
30661 27826 27831 am
30662 27827 27828 am
30663 27832 27833 am
30664 27833 27834 am
30665 27825 27834 am
30666 27831 27832 am
30667 27783 27835 1
30668 27788 27836 1
30669 27805 27837 1
30670 27829 27838 1
30671 27838 27839 1
30672 27819 27840 1
30673 27810 27841 1
30674 27832 27842 1
30675 27784 27843 1
30676 27787 27844 1
30677 27791 27845 1
30678 27791 27846 1
30679 27796 27847 1
30680 27796 27848 1
30681 27797 27849 1
30682 27797 27850 1
30683 27798 27851 1
30684 27798 27852 1
30685 27806 27853 1
30686 27809 27854 1
30687 27815 27855 1
30688 27815 27856 1
30689 27816 27857 1
30690 27816 27858 1
30691 27817 27859 1
30692 27817 27860 1
30693 27818 27861 1
30694 27820 27862 1
30695 27821 27863 1
30696 27821 27864 1
30697 27824 27865 1
30698 27828 27866 1
30699 27830 27867 1
30700 27833 27868 1
30701 27834 27869 1
30702 27835 27870 1
30703 27836 27871 1
30704 27836 27872 1
30705 27836 27873 1
30706 27837 27874 1
30707 27838 27875 1
30708 27839 27876 1
30709 27839 27877 1
30710 27839 27878 1
30711 27840 27879 1
30712 27841 27880 1
30713 27842 27881 1
30714 27806 27882 1
30715 27809 27883 1
30716 27838 27884 1
30717 27885 27886 am
30718 27886 27887 am
30719 27887 27888 am
30720 27888 27889 am
30721 27889 27890 am
30722 27890 27885 am
30723 27891 27892 am
30724 27892 27893 1
30725 27887 27893 1
30726 27888 27891 1
30727 27894 27895 am
30728 27895 27896 am
30729 27896 27897 am
30730 27891 27897 am
30731 27892 27894 am
30732 27898 27899 1
30733 27899 27900 1
30734 27900 27901 1
30735 27896 27901 1
30736 27897 27898 1
30737 27902 27903 am
30738 27903 27904 am
30739 27895 27904 am
30740 27901 27902 am
30741 27905 27906 am
30742 27906 27907 am
30743 27894 27907 am
30744 27904 27905 am
30745 27908 27909 1
30746 27909 27910 am
30747 27910 27911 1
30748 27902 27911 1
30749 27903 27908 1
30750 27912 27913 am
30751 27913 27914 am
30752 27914 27915 am
30753 27909 27915 am
30754 27910 27912 am
30755 27916 27917 1
30756 27917 27918 1
30757 27918 27919 1
30758 27913 27919 1
30759 27914 27916 1
30760 27920 27921 am
30761 27921 27922 am
30762 27915 27920 am
30763 27916 27922 am
30764 27923 27924 1
30765 27924 27925 am
30766 27905 27925 am
30767 27906 27923 1
30768 27926 27927 am
30769 27927 27928 am
30770 27928 27929 am
30771 27924 27929 am
30772 27925 27926 am
30773 27930 27931 am
30774 27931 27932 am
30775 27932 27933 am
30776 27928 27933 am
30777 27929 27930 am
30778 27934 27935 am
30779 27935 27936 am
30780 27927 27936 am
30781 27933 27934 am
30782 27885 27937 1
30783 27890 27938 1
30784 27907 27939 1
30785 27931 27940 1
30786 27940 27941 1
30787 27921 27942 1
30788 27912 27943 1
30789 27934 27944 1
30790 27886 27945 1
30791 27889 27946 1
30792 27893 27947 1
30793 27893 27948 1
30794 27898 27949 1
30795 27898 27950 1
30796 27899 27951 1
30797 27899 27952 1
30798 27900 27953 1
30799 27900 27954 1
30800 27908 27955 1
30801 27911 27956 1
30802 27917 27957 1
30803 27917 27958 1
30804 27918 27959 1
30805 27918 27960 1
30806 27919 27961 1
30807 27919 27962 1
30808 27920 27963 1
30809 27922 27964 1
30810 27923 27965 1
30811 27923 27966 1
30812 27926 27967 1
30813 27930 27968 1
30814 27932 27969 1
30815 27935 27970 1
30816 27936 27971 1
30817 27937 27972 1
30818 27938 27973 1
30819 27938 27974 1
30820 27938 27975 1
30821 27939 27976 1
30822 27940 27977 1
30823 27941 27978 1
30824 27941 27979 1
30825 27941 27980 1
30826 27942 27981 1
30827 27943 27982 1
30828 27944 27983 1
30829 27908 27984 1
30830 27911 27985 1
30831 27940 27986 1
30832 27987 27988 am
30833 27988 27989 am
30834 27989 27990 am
30835 27990 27991 am
30836 27991 27992 am
30837 27992 27987 am
30838 27993 27994 am
30839 27994 27995 1
30840 27989 27995 1
30841 27990 27993 1
30842 27996 27997 am
30843 27997 27998 am
30844 27998 27999 am
30845 27993 27999 am
30846 27994 27996 am
30847 28000 28001 1
30848 28001 28002 1
30849 28002 28003 1
30850 27998 28003 1
30851 27999 28000 1
30852 28004 28005 am
30853 28005 28006 am
30854 27997 28006 am
30855 28003 28004 am
30856 28007 28008 am
30857 28008 28009 am
30858 27996 28009 am
30859 28006 28007 am
30860 28010 28011 1
30861 28011 28012 am
30862 28012 28013 1
30863 28004 28013 1
30864 28005 28010 1
30865 28014 28015 am
30866 28015 28016 am
30867 28016 28017 am
30868 28011 28017 am
30869 28012 28014 am
30870 28018 28019 1
30871 28019 28020 1
30872 28020 28021 1
30873 28015 28021 1
30874 28016 28018 1
30875 28022 28023 am
30876 28023 28024 am
30877 28017 28022 am
30878 28018 28024 am
30879 28025 28026 1
30880 28026 28027 am
30881 28007 28027 am
30882 28008 28025 1
30883 28028 28029 am
30884 28029 28030 am
30885 28030 28031 am
30886 28026 28031 am
30887 28027 28028 am
30888 28032 28033 am
30889 28033 28034 am
30890 28034 28035 am
30891 28030 28035 am
30892 28031 28032 am
30893 28036 28037 am
30894 28037 28038 am
30895 28029 28038 am
30896 28035 28036 am
30897 27987 28039 1
30898 27992 28040 1
30899 28009 28041 1
30900 28033 28042 1
30901 28042 28043 1
30902 28023 28044 1
30903 28014 28045 1
30904 28036 28046 1
30905 27988 28047 1
30906 27991 28048 1
30907 27995 28049 1
30908 27995 28050 1
30909 28000 28051 1
30910 28000 28052 1
30911 28001 28053 1
30912 28001 28054 1
30913 28002 28055 1
30914 28002 28056 1
30915 28010 28057 1
30916 28013 28058 1
30917 28019 28059 1
30918 28019 28060 1
30919 28020 28061 1
30920 28020 28062 1
30921 28021 28063 1
30922 28021 28064 1
30923 28022 28065 1
30924 28024 28066 1
30925 28025 28067 1
30926 28025 28068 1
30927 28028 28069 1
30928 28032 28070 1
30929 28034 28071 1
30930 28037 28072 1
30931 28038 28073 1
30932 28039 28074 1
30933 28040 28075 1
30934 28040 28076 1
30935 28040 28077 1
30936 28041 28078 1
30937 28042 28079 1
30938 28043 28080 1
30939 28043 28081 1
30940 28043 28082 1
30941 28044 28083 1
30942 28045 28084 1
30943 28046 28085 1
30944 28010 28086 1
30945 28013 28087 1
30946 28042 28088 1
30947 28089 28090 am
30948 28090 28091 am
30949 28091 28092 am
30950 28092 28093 am
30951 28093 28094 am
30952 28094 28089 am
30953 28095 28096 am
30954 28096 28097 1
30955 28091 28097 1
30956 28092 28095 1
30957 28098 28099 am
30958 28099 28100 am
30959 28100 28101 am
30960 28095 28101 am
30961 28096 28098 am
30962 28102 28103 1
30963 28103 28104 1
30964 28104 28105 1
30965 28100 28105 1
30966 28101 28102 1
30967 28106 28107 am
30968 28107 28108 am
30969 28099 28108 am
30970 28105 28106 am
30971 28109 28110 am
30972 28110 28111 am
30973 28098 28111 am
30974 28108 28109 am
30975 28112 28113 1
30976 28113 28114 am
30977 28114 28115 1
30978 28106 28115 1
30979 28107 28112 1
30980 28116 28117 am
30981 28117 28118 am
30982 28118 28119 am
30983 28113 28119 am
30984 28114 28116 am
30985 28120 28121 1
30986 28121 28122 1
30987 28122 28123 1
30988 28117 28123 1
30989 28118 28120 1
30990 28124 28125 am
30991 28125 28126 am
30992 28119 28124 am
30993 28120 28126 am
30994 28127 28128 1
30995 28128 28129 am
30996 28109 28129 am
30997 28110 28127 1
30998 28130 28131 am
30999 28131 28132 am
31000 28132 28133 am
31001 28128 28133 am
31002 28129 28130 am
31003 28134 28135 am
31004 28135 28136 am
31005 28136 28137 am
31006 28132 28137 am
31007 28133 28134 am
31008 28138 28139 am
31009 28139 28140 am
31010 28131 28140 am
31011 28137 28138 am
31012 28089 28141 1
31013 28094 28142 1
31014 28111 28143 1
31015 28135 28144 1
31016 28144 28145 1
31017 28125 28146 1
31018 28116 28147 1
31019 28138 28148 1
31020 28090 28149 1
31021 28093 28150 1
31022 28097 28151 1
31023 28097 28152 1
31024 28102 28153 1
31025 28102 28154 1
31026 28103 28155 1
31027 28103 28156 1
31028 28104 28157 1
31029 28104 28158 1
31030 28112 28159 1
31031 28115 28160 1
31032 28121 28161 1
31033 28121 28162 1
31034 28122 28163 1
31035 28122 28164 1
31036 28123 28165 1
31037 28123 28166 1
31038 28124 28167 1
31039 28126 28168 1
31040 28127 28169 1
31041 28127 28170 1
31042 28130 28171 1
31043 28134 28172 1
31044 28136 28173 1
31045 28139 28174 1
31046 28140 28175 1
31047 28141 28176 1
31048 28142 28177 1
31049 28142 28178 1
31050 28142 28179 1
31051 28143 28180 1
31052 28144 28181 1
31053 28145 28182 1
31054 28145 28183 1
31055 28145 28184 1
31056 28146 28185 1
31057 28147 28186 1
31058 28148 28187 1
31059 28112 28188 1
31060 28115 28189 1
31061 28144 28190 1
31062 28191 28192 am
31063 28192 28193 am
31064 28193 28194 am
31065 28194 28195 am
31066 28195 28196 am
31067 28196 28191 am
31068 28197 28198 am
31069 28198 28199 1
31070 28193 28199 1
31071 28194 28197 1
31072 28200 28201 am
31073 28201 28202 am
31074 28202 28203 am
31075 28197 28203 am
31076 28198 28200 am
31077 28204 28205 1
31078 28205 28206 1
31079 28206 28207 1
31080 28202 28207 1
31081 28203 28204 1
31082 28208 28209 am
31083 28209 28210 am
31084 28201 28210 am
31085 28207 28208 am
31086 28211 28212 am
31087 28212 28213 am
31088 28200 28213 am
31089 28210 28211 am
31090 28214 28215 1
31091 28215 28216 am
31092 28216 28217 1
31093 28208 28217 1
31094 28209 28214 1
31095 28218 28219 am
31096 28219 28220 am
31097 28220 28221 am
31098 28215 28221 am
31099 28216 28218 am
31100 28222 28223 1
31101 28223 28224 1
31102 28224 28225 1
31103 28219 28225 1
31104 28220 28222 1
31105 28226 28227 am
31106 28227 28228 am
31107 28221 28226 am
31108 28222 28228 am
31109 28229 28230 1
31110 28230 28231 am
31111 28211 28231 am
31112 28212 28229 1
31113 28232 28233 am
31114 28233 28234 am
31115 28234 28235 am
31116 28230 28235 am
31117 28231 28232 am
31118 28236 28237 am
31119 28237 28238 am
31120 28238 28239 am
31121 28234 28239 am
31122 28235 28236 am
31123 28240 28241 am
31124 28241 28242 am
31125 28233 28242 am
31126 28239 28240 am
31127 28191 28243 1
31128 28196 28244 1
31129 28213 28245 1
31130 28237 28246 1
31131 28246 28247 1
31132 28227 28248 1
31133 28218 28249 1
31134 28240 28250 1
31135 28192 28251 1
31136 28195 28252 1
31137 28199 28253 1
31138 28199 28254 1
31139 28204 28255 1
31140 28204 28256 1
31141 28205 28257 1
31142 28205 28258 1
31143 28206 28259 1
31144 28206 28260 1
31145 28214 28261 1
31146 28217 28262 1
31147 28223 28263 1
31148 28223 28264 1
31149 28224 28265 1
31150 28224 28266 1
31151 28225 28267 1
31152 28225 28268 1
31153 28226 28269 1
31154 28228 28270 1
31155 28229 28271 1
31156 28229 28272 1
31157 28232 28273 1
31158 28236 28274 1
31159 28238 28275 1
31160 28241 28276 1
31161 28242 28277 1
31162 28243 28278 1
31163 28244 28279 1
31164 28244 28280 1
31165 28244 28281 1
31166 28245 28282 1
31167 28246 28283 1
31168 28247 28284 1
31169 28247 28285 1
31170 28247 28286 1
31171 28248 28287 1
31172 28249 28288 1
31173 28250 28289 1
31174 28214 28290 1
31175 28217 28291 1
31176 28246 28292 1
31177 28293 28294 am
31178 28294 28295 am
31179 28295 28296 am
31180 28296 28297 am
31181 28297 28298 am
31182 28298 28293 am
31183 28299 28300 am
31184 28300 28301 1
31185 28295 28301 1
31186 28296 28299 1
31187 28302 28303 am
31188 28303 28304 am
31189 28304 28305 am
31190 28299 28305 am
31191 28300 28302 am
31192 28306 28307 1
31193 28307 28308 1
31194 28308 28309 1
31195 28304 28309 1
31196 28305 28306 1
31197 28310 28311 am
31198 28311 28312 am
31199 28303 28312 am
31200 28309 28310 am
31201 28313 28314 am
31202 28314 28315 am
31203 28302 28315 am
31204 28312 28313 am
31205 28316 28317 1
31206 28317 28318 am
31207 28318 28319 1
31208 28310 28319 1
31209 28311 28316 1
31210 28320 28321 am
31211 28321 28322 am
31212 28322 28323 am
31213 28317 28323 am
31214 28318 28320 am
31215 28324 28325 1
31216 28325 28326 1
31217 28326 28327 1
31218 28321 28327 1
31219 28322 28324 1
31220 28328 28329 am
31221 28329 28330 am
31222 28323 28328 am
31223 28324 28330 am
31224 28331 28332 1
31225 28332 28333 am
31226 28313 28333 am
31227 28314 28331 1
31228 28334 28335 am
31229 28335 28336 am
31230 28336 28337 am
31231 28332 28337 am
31232 28333 28334 am
31233 28338 28339 am
31234 28339 28340 am
31235 28340 28341 am
31236 28336 28341 am
31237 28337 28338 am
31238 28342 28343 am
31239 28343 28344 am
31240 28335 28344 am
31241 28341 28342 am
31242 28293 28345 1
31243 28298 28346 1
31244 28315 28347 1
31245 28339 28348 1
31246 28348 28349 1
31247 28329 28350 1
31248 28320 28351 1
31249 28342 28352 1
31250 28294 28353 1
31251 28297 28354 1
31252 28301 28355 1
31253 28301 28356 1
31254 28306 28357 1
31255 28306 28358 1
31256 28307 28359 1
31257 28307 28360 1
31258 28308 28361 1
31259 28308 28362 1
31260 28316 28363 1
31261 28319 28364 1
31262 28325 28365 1
31263 28325 28366 1
31264 28326 28367 1
31265 28326 28368 1
31266 28327 28369 1
31267 28327 28370 1
31268 28328 28371 1
31269 28330 28372 1
31270 28331 28373 1
31271 28331 28374 1
31272 28334 28375 1
31273 28338 28376 1
31274 28340 28377 1
31275 28343 28378 1
31276 28344 28379 1
31277 28345 28380 1
31278 28346 28381 1
31279 28346 28382 1
31280 28346 28383 1
31281 28347 28384 1
31282 28348 28385 1
31283 28349 28386 1
31284 28349 28387 1
31285 28349 28388 1
31286 28350 28389 1
31287 28351 28390 1
31288 28352 28391 1
31289 28316 28392 1
31290 28319 28393 1
31291 28348 28394 1
31292 28395 28396 am
31293 28396 28397 am
31294 28397 28398 am
31295 28398 28399 am
31296 28399 28400 am
31297 28400 28395 am
31298 28401 28402 am
31299 28402 28403 1
31300 28397 28403 1
31301 28398 28401 1
31302 28404 28405 am
31303 28405 28406 am
31304 28406 28407 am
31305 28401 28407 am
31306 28402 28404 am
31307 28408 28409 1
31308 28409 28410 1
31309 28410 28411 1
31310 28406 28411 1
31311 28407 28408 1
31312 28412 28413 am
31313 28413 28414 am
31314 28405 28414 am
31315 28411 28412 am
31316 28415 28416 am
31317 28416 28417 am
31318 28404 28417 am
31319 28414 28415 am
31320 28418 28419 1
31321 28419 28420 am
31322 28420 28421 1
31323 28412 28421 1
31324 28413 28418 1
31325 28422 28423 am
31326 28423 28424 am
31327 28424 28425 am
31328 28419 28425 am
31329 28420 28422 am
31330 28426 28427 1
31331 28427 28428 1
31332 28428 28429 1
31333 28423 28429 1
31334 28424 28426 1
31335 28430 28431 am
31336 28431 28432 am
31337 28425 28430 am
31338 28426 28432 am
31339 28433 28434 1
31340 28434 28435 am
31341 28415 28435 am
31342 28416 28433 1
31343 28436 28437 am
31344 28437 28438 am
31345 28438 28439 am
31346 28434 28439 am
31347 28435 28436 am
31348 28440 28441 am
31349 28441 28442 am
31350 28442 28443 am
31351 28438 28443 am
31352 28439 28440 am
31353 28444 28445 am
31354 28445 28446 am
31355 28437 28446 am
31356 28443 28444 am
31357 28395 28447 1
31358 28400 28448 1
31359 28417 28449 1
31360 28441 28450 1
31361 28450 28451 1
31362 28431 28452 1
31363 28422 28453 1
31364 28444 28454 1
31365 28396 28455 1
31366 28399 28456 1
31367 28403 28457 1
31368 28403 28458 1
31369 28408 28459 1
31370 28408 28460 1
31371 28409 28461 1
31372 28409 28462 1
31373 28410 28463 1
31374 28410 28464 1
31375 28418 28465 1
31376 28421 28466 1
31377 28427 28467 1
31378 28427 28468 1
31379 28428 28469 1
31380 28428 28470 1
31381 28429 28471 1
31382 28429 28472 1
31383 28430 28473 1
31384 28432 28474 1
31385 28433 28475 1
31386 28433 28476 1
31387 28436 28477 1
31388 28440 28478 1
31389 28442 28479 1
31390 28445 28480 1
31391 28446 28481 1
31392 28447 28482 1
31393 28448 28483 1
31394 28448 28484 1
31395 28448 28485 1
31396 28449 28486 1
31397 28450 28487 1
31398 28451 28488 1
31399 28451 28489 1
31400 28451 28490 1
31401 28452 28491 1
31402 28453 28492 1
31403 28454 28493 1
31404 28418 28494 1
31405 28421 28495 1
31406 28450 28496 1
31407 28497 28498 am
31408 28498 28499 am
31409 28499 28500 am
31410 28500 28501 am
31411 28501 28502 am
31412 28502 28497 am
31413 28503 28504 am
31414 28504 28505 1
31415 28499 28505 1
31416 28500 28503 1
31417 28506 28507 am
31418 28507 28508 am
31419 28508 28509 am
31420 28503 28509 am
31421 28504 28506 am
31422 28510 28511 1
31423 28511 28512 1
31424 28512 28513 1
31425 28508 28513 1
31426 28509 28510 1
31427 28514 28515 am
31428 28515 28516 am
31429 28507 28516 am
31430 28513 28514 am
31431 28517 28518 am
31432 28518 28519 am
31433 28506 28519 am
31434 28516 28517 am
31435 28520 28521 1
31436 28521 28522 am
31437 28522 28523 1
31438 28514 28523 1
31439 28515 28520 1
31440 28524 28525 am
31441 28525 28526 am
31442 28526 28527 am
31443 28521 28527 am
31444 28522 28524 am
31445 28528 28529 1
31446 28529 28530 1
31447 28530 28531 1
31448 28525 28531 1
31449 28526 28528 1
31450 28532 28533 am
31451 28533 28534 am
31452 28527 28532 am
31453 28528 28534 am
31454 28535 28536 1
31455 28536 28537 am
31456 28517 28537 am
31457 28518 28535 1
31458 28538 28539 am
31459 28539 28540 am
31460 28540 28541 am
31461 28536 28541 am
31462 28537 28538 am
31463 28542 28543 am
31464 28543 28544 am
31465 28544 28545 am
31466 28540 28545 am
31467 28541 28542 am
31468 28546 28547 am
31469 28547 28548 am
31470 28539 28548 am
31471 28545 28546 am
31472 28497 28549 1
31473 28502 28550 1
31474 28519 28551 1
31475 28543 28552 1
31476 28552 28553 1
31477 28533 28554 1
31478 28524 28555 1
31479 28546 28556 1
31480 28498 28557 1
31481 28501 28558 1
31482 28505 28559 1
31483 28505 28560 1
31484 28510 28561 1
31485 28510 28562 1
31486 28511 28563 1
31487 28511 28564 1
31488 28512 28565 1
31489 28512 28566 1
31490 28520 28567 1
31491 28523 28568 1
31492 28529 28569 1
31493 28529 28570 1
31494 28530 28571 1
31495 28530 28572 1
31496 28531 28573 1
31497 28531 28574 1
31498 28532 28575 1
31499 28534 28576 1
31500 28535 28577 1
31501 28535 28578 1
31502 28538 28579 1
31503 28542 28580 1
31504 28544 28581 1
31505 28547 28582 1
31506 28548 28583 1
31507 28549 28584 1
31508 28550 28585 1
31509 28550 28586 1
31510 28550 28587 1
31511 28551 28588 1
31512 28552 28589 1
31513 28553 28590 1
31514 28553 28591 1
31515 28553 28592 1
31516 28554 28593 1
31517 28555 28594 1
31518 28556 28595 1
31519 28520 28596 1
31520 28523 28597 1
31521 28552 28598 1
31522 28599 28600 am
31523 28600 28601 am
31524 28601 28602 am
31525 28602 28603 am
31526 28603 28604 am
31527 28604 28599 am
31528 28605 28606 am
31529 28606 28607 1
31530 28601 28607 1
31531 28602 28605 1
31532 28608 28609 am
31533 28609 28610 am
31534 28610 28611 am
31535 28605 28611 am
31536 28606 28608 am
31537 28612 28613 1
31538 28613 28614 1
31539 28614 28615 1
31540 28610 28615 1
31541 28611 28612 1
31542 28616 28617 am
31543 28617 28618 am
31544 28609 28618 am
31545 28615 28616 am
31546 28619 28620 am
31547 28620 28621 am
31548 28608 28621 am
31549 28618 28619 am
31550 28622 28623 1
31551 28623 28624 am
31552 28624 28625 1
31553 28616 28625 1
31554 28617 28622 1
31555 28626 28627 am
31556 28627 28628 am
31557 28628 28629 am
31558 28623 28629 am
31559 28624 28626 am
31560 28630 28631 1
31561 28631 28632 1
31562 28632 28633 1
31563 28627 28633 1
31564 28628 28630 1
31565 28634 28635 am
31566 28635 28636 am
31567 28629 28634 am
31568 28630 28636 am
31569 28637 28638 1
31570 28638 28639 am
31571 28619 28639 am
31572 28620 28637 1
31573 28640 28641 am
31574 28641 28642 am
31575 28642 28643 am
31576 28638 28643 am
31577 28639 28640 am
31578 28644 28645 am
31579 28645 28646 am
31580 28646 28647 am
31581 28642 28647 am
31582 28643 28644 am
31583 28648 28649 am
31584 28649 28650 am
31585 28641 28650 am
31586 28647 28648 am
31587 28599 28651 1
31588 28604 28652 1
31589 28621 28653 1
31590 28645 28654 1
31591 28654 28655 1
31592 28635 28656 1
31593 28626 28657 1
31594 28648 28658 1
31595 28600 28659 1
31596 28603 28660 1
31597 28607 28661 1
31598 28607 28662 1
31599 28612 28663 1
31600 28612 28664 1
31601 28613 28665 1
31602 28613 28666 1
31603 28614 28667 1
31604 28614 28668 1
31605 28622 28669 1
31606 28625 28670 1
31607 28631 28671 1
31608 28631 28672 1
31609 28632 28673 1
31610 28632 28674 1
31611 28633 28675 1
31612 28633 28676 1
31613 28634 28677 1
31614 28636 28678 1
31615 28637 28679 1
31616 28637 28680 1
31617 28640 28681 1
31618 28644 28682 1
31619 28646 28683 1
31620 28649 28684 1
31621 28650 28685 1
31622 28651 28686 1
31623 28652 28687 1
31624 28652 28688 1
31625 28652 28689 1
31626 28653 28690 1
31627 28654 28691 1
31628 28655 28692 1
31629 28655 28693 1
31630 28655 28694 1
31631 28656 28695 1
31632 28657 28696 1
31633 28658 28697 1
31634 28622 28698 1
31635 28625 28699 1
31636 28654 28700 1
31637 28701 28702 am
31638 28702 28703 am
31639 28703 28704 am
31640 28704 28705 am
31641 28705 28706 am
31642 28706 28701 am
31643 28707 28708 am
31644 28708 28709 1
31645 28703 28709 1
31646 28704 28707 1
31647 28710 28711 am
31648 28711 28712 am
31649 28712 28713 am
31650 28707 28713 am
31651 28708 28710 am
31652 28714 28715 1
31653 28715 28716 1
31654 28716 28717 1
31655 28712 28717 1
31656 28713 28714 1
31657 28718 28719 am
31658 28719 28720 am
31659 28711 28720 am
31660 28717 28718 am
31661 28721 28722 am
31662 28722 28723 am
31663 28710 28723 am
31664 28720 28721 am
31665 28724 28725 1
31666 28725 28726 am
31667 28726 28727 1
31668 28718 28727 1
31669 28719 28724 1
31670 28728 28729 am
31671 28729 28730 am
31672 28730 28731 am
31673 28725 28731 am
31674 28726 28728 am
31675 28732 28733 1
31676 28733 28734 1
31677 28734 28735 1
31678 28729 28735 1
31679 28730 28732 1
31680 28736 28737 am
31681 28737 28738 am
31682 28731 28736 am
31683 28732 28738 am
31684 28739 28740 1
31685 28740 28741 am
31686 28721 28741 am
31687 28722 28739 1
31688 28742 28743 am
31689 28743 28744 am
31690 28744 28745 am
31691 28740 28745 am
31692 28741 28742 am
31693 28746 28747 am
31694 28747 28748 am
31695 28748 28749 am
31696 28744 28749 am
31697 28745 28746 am
31698 28750 28751 am
31699 28751 28752 am
31700 28743 28752 am
31701 28749 28750 am
31702 28701 28753 1
31703 28706 28754 1
31704 28723 28755 1
31705 28747 28756 1
31706 28756 28757 1
31707 28737 28758 1
31708 28728 28759 1
31709 28750 28760 1
31710 28702 28761 1
31711 28705 28762 1
31712 28709 28763 1
31713 28709 28764 1
31714 28714 28765 1
31715 28714 28766 1
31716 28715 28767 1
31717 28715 28768 1
31718 28716 28769 1
31719 28716 28770 1
31720 28724 28771 1
31721 28727 28772 1
31722 28733 28773 1
31723 28733 28774 1
31724 28734 28775 1
31725 28734 28776 1
31726 28735 28777 1
31727 28735 28778 1
31728 28736 28779 1
31729 28738 28780 1
31730 28739 28781 1
31731 28739 28782 1
31732 28742 28783 1
31733 28746 28784 1
31734 28748 28785 1
31735 28751 28786 1
31736 28752 28787 1
31737 28753 28788 1
31738 28754 28789 1
31739 28754 28790 1
31740 28754 28791 1
31741 28755 28792 1
31742 28756 28793 1
31743 28757 28794 1
31744 28757 28795 1
31745 28757 28796 1
31746 28758 28797 1
31747 28759 28798 1
31748 28760 28799 1
31749 28724 28800 1
31750 28727 28801 1
31751 28756 28802 1
31752 28803 28804 am
31753 28804 28805 am
31754 28805 28806 am
31755 28806 28807 am
31756 28807 28808 am
31757 28808 28803 am
31758 28809 28810 am
31759 28810 28811 1
31760 28805 28811 1
31761 28806 28809 1
31762 28812 28813 am
31763 28813 28814 am
31764 28814 28815 am
31765 28809 28815 am
31766 28810 28812 am
31767 28816 28817 1
31768 28817 28818 1
31769 28818 28819 1
31770 28814 28819 1
31771 28815 28816 1
31772 28820 28821 am
31773 28821 28822 am
31774 28813 28822 am
31775 28819 28820 am
31776 28823 28824 am
31777 28824 28825 am
31778 28812 28825 am
31779 28822 28823 am
31780 28826 28827 1
31781 28827 28828 am
31782 28828 28829 1
31783 28820 28829 1
31784 28821 28826 1
31785 28830 28831 am
31786 28831 28832 am
31787 28832 28833 am
31788 28827 28833 am
31789 28828 28830 am
31790 28834 28835 1
31791 28835 28836 1
31792 28836 28837 1
31793 28831 28837 1
31794 28832 28834 1
31795 28838 28839 am
31796 28839 28840 am
31797 28833 28838 am
31798 28834 28840 am
31799 28841 28842 1
31800 28842 28843 am
31801 28823 28843 am
31802 28824 28841 1
31803 28844 28845 am
31804 28845 28846 am
31805 28846 28847 am
31806 28842 28847 am
31807 28843 28844 am
31808 28848 28849 am
31809 28849 28850 am
31810 28850 28851 am
31811 28846 28851 am
31812 28847 28848 am
31813 28852 28853 am
31814 28853 28854 am
31815 28845 28854 am
31816 28851 28852 am
31817 28803 28855 1
31818 28808 28856 1
31819 28825 28857 1
31820 28849 28858 1
31821 28858 28859 1
31822 28839 28860 1
31823 28830 28861 1
31824 28852 28862 1
31825 28804 28863 1
31826 28807 28864 1
31827 28811 28865 1
31828 28811 28866 1
31829 28816 28867 1
31830 28816 28868 1
31831 28817 28869 1
31832 28817 28870 1
31833 28818 28871 1
31834 28818 28872 1
31835 28826 28873 1
31836 28829 28874 1
31837 28835 28875 1
31838 28835 28876 1
31839 28836 28877 1
31840 28836 28878 1
31841 28837 28879 1
31842 28837 28880 1
31843 28838 28881 1
31844 28840 28882 1
31845 28841 28883 1
31846 28841 28884 1
31847 28844 28885 1
31848 28848 28886 1
31849 28850 28887 1
31850 28853 28888 1
31851 28854 28889 1
31852 28855 28890 1
31853 28856 28891 1
31854 28856 28892 1
31855 28856 28893 1
31856 28857 28894 1
31857 28858 28895 1
31858 28859 28896 1
31859 28859 28897 1
31860 28859 28898 1
31861 28860 28899 1
31862 28861 28900 1
31863 28862 28901 1
31864 28826 28902 1
31865 28829 28903 1
31866 28858 28904 1
31867 28905 28906 am
31868 28906 28907 am
31869 28907 28908 am
31870 28908 28909 am
31871 28909 28910 am
31872 28910 28905 am
31873 28911 28912 am
31874 28912 28913 1
31875 28907 28913 1
31876 28908 28911 1
31877 28914 28915 am
31878 28915 28916 am
31879 28916 28917 am
31880 28911 28917 am
31881 28912 28914 am
31882 28918 28919 1
31883 28919 28920 1
31884 28920 28921 1
31885 28916 28921 1
31886 28917 28918 1
31887 28922 28923 am
31888 28923 28924 am
31889 28915 28924 am
31890 28921 28922 am
31891 28925 28926 am
31892 28926 28927 am
31893 28914 28927 am
31894 28924 28925 am
31895 28928 28929 1
31896 28929 28930 am
31897 28930 28931 1
31898 28922 28931 1
31899 28923 28928 1
31900 28932 28933 am
31901 28933 28934 am
31902 28934 28935 am
31903 28929 28935 am
31904 28930 28932 am
31905 28936 28937 1
31906 28937 28938 1
31907 28938 28939 1
31908 28933 28939 1
31909 28934 28936 1
31910 28940 28941 am
31911 28941 28942 am
31912 28935 28940 am
31913 28936 28942 am
31914 28943 28944 1
31915 28944 28945 am
31916 28925 28945 am
31917 28926 28943 1
31918 28946 28947 am
31919 28947 28948 am
31920 28948 28949 am
31921 28944 28949 am
31922 28945 28946 am
31923 28950 28951 am
31924 28951 28952 am
31925 28952 28953 am
31926 28948 28953 am
31927 28949 28950 am
31928 28954 28955 am
31929 28955 28956 am
31930 28947 28956 am
31931 28953 28954 am
31932 28905 28957 1
31933 28910 28958 1
31934 28927 28959 1
31935 28951 28960 1
31936 28960 28961 1
31937 28941 28962 1
31938 28932 28963 1
31939 28954 28964 1
31940 28906 28965 1
31941 28909 28966 1
31942 28913 28967 1
31943 28913 28968 1
31944 28918 28969 1
31945 28918 28970 1
31946 28919 28971 1
31947 28919 28972 1
31948 28920 28973 1
31949 28920 28974 1
31950 28928 28975 1
31951 28931 28976 1
31952 28937 28977 1
31953 28937 28978 1
31954 28938 28979 1
31955 28938 28980 1
31956 28939 28981 1
31957 28939 28982 1
31958 28940 28983 1
31959 28942 28984 1
31960 28943 28985 1
31961 28943 28986 1
31962 28946 28987 1
31963 28950 28988 1
31964 28952 28989 1
31965 28955 28990 1
31966 28956 28991 1
31967 28957 28992 1
31968 28958 28993 1
31969 28958 28994 1
31970 28958 28995 1
31971 28959 28996 1
31972 28960 28997 1
31973 28961 28998 1
31974 28961 28999 1
31975 28961 29000 1
31976 28962 29001 1
31977 28963 29002 1
31978 28964 29003 1
31979 28928 29004 1
31980 28931 29005 1
31981 28960 29006 1
31982 29007 29008 am
31983 29008 29009 am
31984 29009 29010 am
31985 29010 29011 am
31986 29011 29012 am
31987 29012 29007 am
31988 29013 29014 am
31989 29014 29015 1
31990 29009 29015 1
31991 29010 29013 1
31992 29016 29017 am
31993 29017 29018 am
31994 29018 29019 am
31995 29013 29019 am
31996 29014 29016 am
31997 29020 29021 1
31998 29021 29022 1
31999 29022 29023 1
32000 29018 29023 1
32001 29019 29020 1
32002 29024 29025 am
32003 29025 29026 am
32004 29017 29026 am
32005 29023 29024 am
32006 29027 29028 am
32007 29028 29029 am
32008 29016 29029 am
32009 29026 29027 am
32010 29030 29031 1
32011 29031 29032 am
32012 29032 29033 1
32013 29024 29033 1
32014 29025 29030 1
32015 29034 29035 am
32016 29035 29036 am
32017 29036 29037 am
32018 29031 29037 am
32019 29032 29034 am
32020 29038 29039 1
32021 29039 29040 1
32022 29040 29041 1
32023 29035 29041 1
32024 29036 29038 1
32025 29042 29043 am
32026 29043 29044 am
32027 29037 29042 am
32028 29038 29044 am
32029 29045 29046 1
32030 29046 29047 am
32031 29027 29047 am
32032 29028 29045 1
32033 29048 29049 am
32034 29049 29050 am
32035 29050 29051 am
32036 29046 29051 am
32037 29047 29048 am
32038 29052 29053 am
32039 29053 29054 am
32040 29054 29055 am
32041 29050 29055 am
32042 29051 29052 am
32043 29056 29057 am
32044 29057 29058 am
32045 29049 29058 am
32046 29055 29056 am
32047 29007 29059 1
32048 29012 29060 1
32049 29029 29061 1
32050 29053 29062 1
32051 29062 29063 1
32052 29043 29064 1
32053 29034 29065 1
32054 29056 29066 1
32055 29008 29067 1
32056 29011 29068 1
32057 29015 29069 1
32058 29015 29070 1
32059 29020 29071 1
32060 29020 29072 1
32061 29021 29073 1
32062 29021 29074 1
32063 29022 29075 1
32064 29022 29076 1
32065 29030 29077 1
32066 29033 29078 1
32067 29039 29079 1
32068 29039 29080 1
32069 29040 29081 1
32070 29040 29082 1
32071 29041 29083 1
32072 29041 29084 1
32073 29042 29085 1
32074 29044 29086 1
32075 29045 29087 1
32076 29045 29088 1
32077 29048 29089 1
32078 29052 29090 1
32079 29054 29091 1
32080 29057 29092 1
32081 29058 29093 1
32082 29059 29094 1
32083 29060 29095 1
32084 29060 29096 1
32085 29060 29097 1
32086 29061 29098 1
32087 29062 29099 1
32088 29063 29100 1
32089 29063 29101 1
32090 29063 29102 1
32091 29064 29103 1
32092 29065 29104 1
32093 29066 29105 1
32094 29030 29106 1
32095 29033 29107 1
32096 29062 29108 1
32097 29109 29110 am
32098 29110 29111 am
32099 29111 29112 am
32100 29112 29113 am
32101 29113 29114 am
32102 29114 29109 am
32103 29115 29116 am
32104 29116 29117 1
32105 29111 29117 1
32106 29112 29115 1
32107 29118 29119 am
32108 29119 29120 am
32109 29120 29121 am
32110 29115 29121 am
32111 29116 29118 am
32112 29122 29123 1
32113 29123 29124 1
32114 29124 29125 1
32115 29120 29125 1
32116 29121 29122 1
32117 29126 29127 am
32118 29127 29128 am
32119 29119 29128 am
32120 29125 29126 am
32121 29129 29130 am
32122 29130 29131 am
32123 29118 29131 am
32124 29128 29129 am
32125 29132 29133 1
32126 29133 29134 am
32127 29134 29135 1
32128 29126 29135 1
32129 29127 29132 1
32130 29136 29137 am
32131 29137 29138 am
32132 29138 29139 am
32133 29133 29139 am
32134 29134 29136 am
32135 29140 29141 1
32136 29141 29142 1
32137 29142 29143 1
32138 29137 29143 1
32139 29138 29140 1
32140 29144 29145 am
32141 29145 29146 am
32142 29139 29144 am
32143 29140 29146 am
32144 29147 29148 1
32145 29148 29149 am
32146 29129 29149 am
32147 29130 29147 1
32148 29150 29151 am
32149 29151 29152 am
32150 29152 29153 am
32151 29148 29153 am
32152 29149 29150 am
32153 29154 29155 am
32154 29155 29156 am
32155 29156 29157 am
32156 29152 29157 am
32157 29153 29154 am
32158 29158 29159 am
32159 29159 29160 am
32160 29151 29160 am
32161 29157 29158 am
32162 29109 29161 1
32163 29114 29162 1
32164 29131 29163 1
32165 29155 29164 1
32166 29164 29165 1
32167 29145 29166 1
32168 29136 29167 1
32169 29158 29168 1
32170 29110 29169 1
32171 29113 29170 1
32172 29117 29171 1
32173 29117 29172 1
32174 29122 29173 1
32175 29122 29174 1
32176 29123 29175 1
32177 29123 29176 1
32178 29124 29177 1
32179 29124 29178 1
32180 29132 29179 1
32181 29135 29180 1
32182 29141 29181 1
32183 29141 29182 1
32184 29142 29183 1
32185 29142 29184 1
32186 29143 29185 1
32187 29143 29186 1
32188 29144 29187 1
32189 29146 29188 1
32190 29147 29189 1
32191 29147 29190 1
32192 29150 29191 1
32193 29154 29192 1
32194 29156 29193 1
32195 29159 29194 1
32196 29160 29195 1
32197 29161 29196 1
32198 29162 29197 1
32199 29162 29198 1
32200 29162 29199 1
32201 29163 29200 1
32202 29164 29201 1
32203 29165 29202 1
32204 29165 29203 1
32205 29165 29204 1
32206 29166 29205 1
32207 29167 29206 1
32208 29168 29207 1
32209 29132 29208 1
32210 29135 29209 1
32211 29164 29210 1
32212 29211 29212 am
32213 29212 29213 am
32214 29213 29214 am
32215 29214 29215 am
32216 29215 29216 am
32217 29216 29211 am
32218 29217 29218 am
32219 29218 29219 1
32220 29213 29219 1
32221 29214 29217 1
32222 29220 29221 am
32223 29221 29222 am
32224 29222 29223 am
32225 29217 29223 am
32226 29218 29220 am
32227 29224 29225 1
32228 29225 29226 1
32229 29226 29227 1
32230 29222 29227 1
32231 29223 29224 1
32232 29228 29229 am
32233 29229 29230 am
32234 29221 29230 am
32235 29227 29228 am
32236 29231 29232 am
32237 29232 29233 am
32238 29220 29233 am
32239 29230 29231 am
32240 29234 29235 1
32241 29235 29236 am
32242 29236 29237 1
32243 29228 29237 1
32244 29229 29234 1
32245 29238 29239 am
32246 29239 29240 am
32247 29240 29241 am
32248 29235 29241 am
32249 29236 29238 am
32250 29242 29243 1
32251 29243 29244 1
32252 29244 29245 1
32253 29239 29245 1
32254 29240 29242 1
32255 29246 29247 am
32256 29247 29248 am
32257 29241 29246 am
32258 29242 29248 am
32259 29249 29250 1
32260 29250 29251 am
32261 29231 29251 am
32262 29232 29249 1
32263 29252 29253 am
32264 29253 29254 am
32265 29254 29255 am
32266 29250 29255 am
32267 29251 29252 am
32268 29256 29257 am
32269 29257 29258 am
32270 29258 29259 am
32271 29254 29259 am
32272 29255 29256 am
32273 29260 29261 am
32274 29261 29262 am
32275 29253 29262 am
32276 29259 29260 am
32277 29211 29263 1
32278 29216 29264 1
32279 29233 29265 1
32280 29257 29266 1
32281 29266 29267 1
32282 29247 29268 1
32283 29238 29269 1
32284 29260 29270 1
32285 29212 29271 1
32286 29215 29272 1
32287 29219 29273 1
32288 29219 29274 1
32289 29224 29275 1
32290 29224 29276 1
32291 29225 29277 1
32292 29225 29278 1
32293 29226 29279 1
32294 29226 29280 1
32295 29234 29281 1
32296 29237 29282 1
32297 29243 29283 1
32298 29243 29284 1
32299 29244 29285 1
32300 29244 29286 1
32301 29245 29287 1
32302 29245 29288 1
32303 29246 29289 1
32304 29248 29290 1
32305 29249 29291 1
32306 29249 29292 1
32307 29252 29293 1
32308 29256 29294 1
32309 29258 29295 1
32310 29261 29296 1
32311 29262 29297 1
32312 29263 29298 1
32313 29264 29299 1
32314 29264 29300 1
32315 29264 29301 1
32316 29265 29302 1
32317 29266 29303 1
32318 29267 29304 1
32319 29267 29305 1
32320 29267 29306 1
32321 29268 29307 1
32322 29269 29308 1
32323 29270 29309 1
32324 29234 29310 1
32325 29237 29311 1
32326 29266 29312 1
32327 29313 29314 am
32328 29314 29315 am
32329 29315 29316 am
32330 29316 29317 am
32331 29317 29318 am
32332 29318 29313 am
32333 29319 29320 am
32334 29320 29321 1
32335 29315 29321 1
32336 29316 29319 1
32337 29322 29323 am
32338 29323 29324 am
32339 29324 29325 am
32340 29319 29325 am
32341 29320 29322 am
32342 29326 29327 1
32343 29327 29328 1
32344 29328 29329 1
32345 29324 29329 1
32346 29325 29326 1
32347 29330 29331 am
32348 29331 29332 am
32349 29323 29332 am
32350 29329 29330 am
32351 29333 29334 am
32352 29334 29335 am
32353 29322 29335 am
32354 29332 29333 am
32355 29336 29337 1
32356 29337 29338 am
32357 29338 29339 1
32358 29330 29339 1
32359 29331 29336 1
32360 29340 29341 am
32361 29341 29342 am
32362 29342 29343 am
32363 29337 29343 am
32364 29338 29340 am
32365 29344 29345 1
32366 29345 29346 1
32367 29346 29347 1
32368 29341 29347 1
32369 29342 29344 1
32370 29348 29349 am
32371 29349 29350 am
32372 29343 29348 am
32373 29344 29350 am
32374 29351 29352 1
32375 29352 29353 am
32376 29333 29353 am
32377 29334 29351 1
32378 29354 29355 am
32379 29355 29356 am
32380 29356 29357 am
32381 29352 29357 am
32382 29353 29354 am
32383 29358 29359 am
32384 29359 29360 am
32385 29360 29361 am
32386 29356 29361 am
32387 29357 29358 am
32388 29362 29363 am
32389 29363 29364 am
32390 29355 29364 am
32391 29361 29362 am
32392 29313 29365 1
32393 29318 29366 1
32394 29335 29367 1
32395 29359 29368 1
32396 29368 29369 1
32397 29349 29370 1
32398 29340 29371 1
32399 29362 29372 1
32400 29314 29373 1
32401 29317 29374 1
32402 29321 29375 1
32403 29321 29376 1
32404 29326 29377 1
32405 29326 29378 1
32406 29327 29379 1
32407 29327 29380 1
32408 29328 29381 1
32409 29328 29382 1
32410 29336 29383 1
32411 29339 29384 1
32412 29345 29385 1
32413 29345 29386 1
32414 29346 29387 1
32415 29346 29388 1
32416 29347 29389 1
32417 29347 29390 1
32418 29348 29391 1
32419 29350 29392 1
32420 29351 29393 1
32421 29351 29394 1
32422 29354 29395 1
32423 29358 29396 1
32424 29360 29397 1
32425 29363 29398 1
32426 29364 29399 1
32427 29365 29400 1
32428 29366 29401 1
32429 29366 29402 1
32430 29366 29403 1
32431 29367 29404 1
32432 29368 29405 1
32433 29369 29406 1
32434 29369 29407 1
32435 29369 29408 1
32436 29370 29409 1
32437 29371 29410 1
32438 29372 29411 1
32439 29336 29412 1
32440 29339 29413 1
32441 29368 29414 1
32442 29415 29416 am
32443 29416 29417 am
32444 29417 29418 am
32445 29418 29419 am
32446 29419 29420 am
32447 29420 29415 am
32448 29421 29422 am
32449 29422 29423 1
32450 29417 29423 1
32451 29418 29421 1
32452 29424 29425 am
32453 29425 29426 am
32454 29426 29427 am
32455 29421 29427 am
32456 29422 29424 am
32457 29428 29429 1
32458 29429 29430 1
32459 29430 29431 1
32460 29426 29431 1
32461 29427 29428 1
32462 29432 29433 am
32463 29433 29434 am
32464 29425 29434 am
32465 29431 29432 am
32466 29435 29436 am
32467 29436 29437 am
32468 29424 29437 am
32469 29434 29435 am
32470 29438 29439 1
32471 29439 29440 am
32472 29440 29441 1
32473 29432 29441 1
32474 29433 29438 1
32475 29442 29443 am
32476 29443 29444 am
32477 29444 29445 am
32478 29439 29445 am
32479 29440 29442 am
32480 29446 29447 1
32481 29447 29448 1
32482 29448 29449 1
32483 29443 29449 1
32484 29444 29446 1
32485 29450 29451 am
32486 29451 29452 am
32487 29445 29450 am
32488 29446 29452 am
32489 29453 29454 1
32490 29454 29455 am
32491 29435 29455 am
32492 29436 29453 1
32493 29456 29457 am
32494 29457 29458 am
32495 29458 29459 am
32496 29454 29459 am
32497 29455 29456 am
32498 29460 29461 am
32499 29461 29462 am
32500 29462 29463 am
32501 29458 29463 am
32502 29459 29460 am
32503 29464 29465 am
32504 29465 29466 am
32505 29457 29466 am
32506 29463 29464 am
32507 29415 29467 1
32508 29420 29468 1
32509 29437 29469 1
32510 29461 29470 1
32511 29470 29471 1
32512 29451 29472 1
32513 29442 29473 1
32514 29464 29474 1
32515 29416 29475 1
32516 29419 29476 1
32517 29423 29477 1
32518 29423 29478 1
32519 29428 29479 1
32520 29428 29480 1
32521 29429 29481 1
32522 29429 29482 1
32523 29430 29483 1
32524 29430 29484 1
32525 29438 29485 1
32526 29441 29486 1
32527 29447 29487 1
32528 29447 29488 1
32529 29448 29489 1
32530 29448 29490 1
32531 29449 29491 1
32532 29449 29492 1
32533 29450 29493 1
32534 29452 29494 1
32535 29453 29495 1
32536 29453 29496 1
32537 29456 29497 1
32538 29460 29498 1
32539 29462 29499 1
32540 29465 29500 1
32541 29466 29501 1
32542 29467 29502 1
32543 29468 29503 1
32544 29468 29504 1
32545 29468 29505 1
32546 29469 29506 1
32547 29470 29507 1
32548 29471 29508 1
32549 29471 29509 1
32550 29471 29510 1
32551 29472 29511 1
32552 29473 29512 1
32553 29474 29513 1
32554 29438 29514 1
32555 29441 29515 1
32556 29470 29516 1
32557 29517 29518 am
32558 29518 29519 am
32559 29519 29520 am
32560 29520 29521 am
32561 29521 29522 am
32562 29522 29517 am
32563 29523 29524 am
32564 29524 29525 1
32565 29519 29525 1
32566 29520 29523 1
32567 29526 29527 am
32568 29527 29528 am
32569 29528 29529 am
32570 29523 29529 am
32571 29524 29526 am
32572 29530 29531 1
32573 29531 29532 1
32574 29532 29533 1
32575 29528 29533 1
32576 29529 29530 1
32577 29534 29535 am
32578 29535 29536 am
32579 29527 29536 am
32580 29533 29534 am
32581 29537 29538 am
32582 29538 29539 am
32583 29526 29539 am
32584 29536 29537 am
32585 29540 29541 1
32586 29541 29542 am
32587 29542 29543 1
32588 29534 29543 1
32589 29535 29540 1
32590 29544 29545 am
32591 29545 29546 am
32592 29546 29547 am
32593 29541 29547 am
32594 29542 29544 am
32595 29548 29549 1
32596 29549 29550 1
32597 29550 29551 1
32598 29545 29551 1
32599 29546 29548 1
32600 29552 29553 am
32601 29553 29554 am
32602 29547 29552 am
32603 29548 29554 am
32604 29555 29556 1
32605 29556 29557 am
32606 29537 29557 am
32607 29538 29555 1
32608 29558 29559 am
32609 29559 29560 am
32610 29560 29561 am
32611 29556 29561 am
32612 29557 29558 am
32613 29562 29563 am
32614 29563 29564 am
32615 29564 29565 am
32616 29560 29565 am
32617 29561 29562 am
32618 29566 29567 am
32619 29567 29568 am
32620 29559 29568 am
32621 29565 29566 am
32622 29517 29569 1
32623 29522 29570 1
32624 29539 29571 1
32625 29563 29572 1
32626 29572 29573 1
32627 29553 29574 1
32628 29544 29575 1
32629 29566 29576 1
32630 29518 29577 1
32631 29521 29578 1
32632 29525 29579 1
32633 29525 29580 1
32634 29530 29581 1
32635 29530 29582 1
32636 29531 29583 1
32637 29531 29584 1
32638 29532 29585 1
32639 29532 29586 1
32640 29540 29587 1
32641 29543 29588 1
32642 29549 29589 1
32643 29549 29590 1
32644 29550 29591 1
32645 29550 29592 1
32646 29551 29593 1
32647 29551 29594 1
32648 29552 29595 1
32649 29554 29596 1
32650 29555 29597 1
32651 29555 29598 1
32652 29558 29599 1
32653 29562 29600 1
32654 29564 29601 1
32655 29567 29602 1
32656 29568 29603 1
32657 29569 29604 1
32658 29570 29605 1
32659 29570 29606 1
32660 29570 29607 1
32661 29571 29608 1
32662 29572 29609 1
32663 29573 29610 1
32664 29573 29611 1
32665 29573 29612 1
32666 29574 29613 1
32667 29575 29614 1
32668 29576 29615 1
32669 29540 29616 1
32670 29543 29617 1
32671 29572 29618 1
32672 29619 29620 am
32673 29620 29621 am
32674 29621 29622 am
32675 29622 29623 am
32676 29623 29624 am
32677 29624 29619 am
32678 29625 29626 am
32679 29626 29627 1
32680 29621 29627 1
32681 29622 29625 1
32682 29628 29629 am
32683 29629 29630 am
32684 29630 29631 am
32685 29625 29631 am
32686 29626 29628 am
32687 29632 29633 1
32688 29633 29634 1
32689 29634 29635 1
32690 29630 29635 1
32691 29631 29632 1
32692 29636 29637 am
32693 29637 29638 am
32694 29629 29638 am
32695 29635 29636 am
32696 29639 29640 am
32697 29640 29641 am
32698 29628 29641 am
32699 29638 29639 am
32700 29642 29643 1
32701 29643 29644 am
32702 29644 29645 1
32703 29636 29645 1
32704 29637 29642 1
32705 29646 29647 am
32706 29647 29648 am
32707 29648 29649 am
32708 29643 29649 am
32709 29644 29646 am
32710 29650 29651 1
32711 29651 29652 1
32712 29652 29653 1
32713 29647 29653 1
32714 29648 29650 1
32715 29654 29655 am
32716 29655 29656 am
32717 29649 29654 am
32718 29650 29656 am
32719 29657 29658 1
32720 29658 29659 am
32721 29639 29659 am
32722 29640 29657 1
32723 29660 29661 am
32724 29661 29662 am
32725 29662 29663 am
32726 29658 29663 am
32727 29659 29660 am
32728 29664 29665 am
32729 29665 29666 am
32730 29666 29667 am
32731 29662 29667 am
32732 29663 29664 am
32733 29668 29669 am
32734 29669 29670 am
32735 29661 29670 am
32736 29667 29668 am
32737 29619 29671 1
32738 29624 29672 1
32739 29641 29673 1
32740 29665 29674 1
32741 29674 29675 1
32742 29655 29676 1
32743 29646 29677 1
32744 29668 29678 1
32745 29620 29679 1
32746 29623 29680 1
32747 29627 29681 1
32748 29627 29682 1
32749 29632 29683 1
32750 29632 29684 1
32751 29633 29685 1
32752 29633 29686 1
32753 29634 29687 1
32754 29634 29688 1
32755 29642 29689 1
32756 29645 29690 1
32757 29651 29691 1
32758 29651 29692 1
32759 29652 29693 1
32760 29652 29694 1
32761 29653 29695 1
32762 29653 29696 1
32763 29654 29697 1
32764 29656 29698 1
32765 29657 29699 1
32766 29657 29700 1
32767 29660 29701 1
32768 29664 29702 1
32769 29666 29703 1
32770 29669 29704 1
32771 29670 29705 1
32772 29671 29706 1
32773 29672 29707 1
32774 29672 29708 1
32775 29672 29709 1
32776 29673 29710 1
32777 29674 29711 1
32778 29675 29712 1
32779 29675 29713 1
32780 29675 29714 1
32781 29676 29715 1
32782 29677 29716 1
32783 29678 29717 1
32784 29642 29718 1
32785 29645 29719 1
32786 29674 29720 1
32787 29721 29722 am
32788 29722 29723 am
32789 29723 29724 am
32790 29724 29725 am
32791 29725 29726 am
32792 29726 29721 am
32793 29727 29728 am
32794 29728 29729 1
32795 29723 29729 1
32796 29724 29727 1
32797 29730 29731 am
32798 29731 29732 am
32799 29732 29733 am
32800 29727 29733 am
32801 29728 29730 am
32802 29734 29735 1
32803 29735 29736 1
32804 29736 29737 1
32805 29732 29737 1
32806 29733 29734 1
32807 29738 29739 am
32808 29739 29740 am
32809 29731 29740 am
32810 29737 29738 am
32811 29741 29742 am
32812 29742 29743 am
32813 29730 29743 am
32814 29740 29741 am
32815 29744 29745 1
32816 29745 29746 am
32817 29746 29747 1
32818 29738 29747 1
32819 29739 29744 1
32820 29748 29749 am
32821 29749 29750 am
32822 29750 29751 am
32823 29745 29751 am
32824 29746 29748 am
32825 29752 29753 1
32826 29753 29754 1
32827 29754 29755 1
32828 29749 29755 1
32829 29750 29752 1
32830 29756 29757 am
32831 29757 29758 am
32832 29751 29756 am
32833 29752 29758 am
32834 29759 29760 1
32835 29760 29761 am
32836 29741 29761 am
32837 29742 29759 1
32838 29762 29763 am
32839 29763 29764 am
32840 29764 29765 am
32841 29760 29765 am
32842 29761 29762 am
32843 29766 29767 am
32844 29767 29768 am
32845 29768 29769 am
32846 29764 29769 am
32847 29765 29766 am
32848 29770 29771 am
32849 29771 29772 am
32850 29763 29772 am
32851 29769 29770 am
32852 29721 29773 1
32853 29726 29774 1
32854 29743 29775 1
32855 29767 29776 1
32856 29776 29777 1
32857 29757 29778 1
32858 29748 29779 1
32859 29770 29780 1
32860 29722 29781 1
32861 29725 29782 1
32862 29729 29783 1
32863 29729 29784 1
32864 29734 29785 1
32865 29734 29786 1
32866 29735 29787 1
32867 29735 29788 1
32868 29736 29789 1
32869 29736 29790 1
32870 29744 29791 1
32871 29747 29792 1
32872 29753 29793 1
32873 29753 29794 1
32874 29754 29795 1
32875 29754 29796 1
32876 29755 29797 1
32877 29755 29798 1
32878 29756 29799 1
32879 29758 29800 1
32880 29759 29801 1
32881 29759 29802 1
32882 29762 29803 1
32883 29766 29804 1
32884 29768 29805 1
32885 29771 29806 1
32886 29772 29807 1
32887 29773 29808 1
32888 29774 29809 1
32889 29774 29810 1
32890 29774 29811 1
32891 29775 29812 1
32892 29776 29813 1
32893 29777 29814 1
32894 29777 29815 1
32895 29777 29816 1
32896 29778 29817 1
32897 29779 29818 1
32898 29780 29819 1
32899 29744 29820 1
32900 29747 29821 1
32901 29776 29822 1
32902 29823 29824 am
32903 29824 29825 am
32904 29825 29826 am
32905 29826 29827 am
32906 29827 29828 am
32907 29828 29823 am
32908 29829 29830 am
32909 29830 29831 1
32910 29825 29831 1
32911 29826 29829 1
32912 29832 29833 am
32913 29833 29834 am
32914 29834 29835 am
32915 29829 29835 am
32916 29830 29832 am
32917 29836 29837 1
32918 29837 29838 1
32919 29838 29839 1
32920 29834 29839 1
32921 29835 29836 1
32922 29840 29841 am
32923 29841 29842 am
32924 29833 29842 am
32925 29839 29840 am
32926 29843 29844 am
32927 29844 29845 am
32928 29832 29845 am
32929 29842 29843 am
32930 29846 29847 1
32931 29847 29848 am
32932 29848 29849 1
32933 29840 29849 1
32934 29841 29846 1
32935 29850 29851 am
32936 29851 29852 am
32937 29852 29853 am
32938 29847 29853 am
32939 29848 29850 am
32940 29854 29855 1
32941 29855 29856 1
32942 29856 29857 1
32943 29851 29857 1
32944 29852 29854 1
32945 29858 29859 am
32946 29859 29860 am
32947 29853 29858 am
32948 29854 29860 am
32949 29861 29862 1
32950 29862 29863 am
32951 29843 29863 am
32952 29844 29861 1
32953 29864 29865 am
32954 29865 29866 am
32955 29866 29867 am
32956 29862 29867 am
32957 29863 29864 am
32958 29868 29869 am
32959 29869 29870 am
32960 29870 29871 am
32961 29866 29871 am
32962 29867 29868 am
32963 29872 29873 am
32964 29873 29874 am
32965 29865 29874 am
32966 29871 29872 am
32967 29823 29875 1
32968 29828 29876 1
32969 29845 29877 1
32970 29869 29878 1
32971 29878 29879 1
32972 29859 29880 1
32973 29850 29881 1
32974 29872 29882 1
32975 29824 29883 1
32976 29827 29884 1
32977 29831 29885 1
32978 29831 29886 1
32979 29836 29887 1
32980 29836 29888 1
32981 29837 29889 1
32982 29837 29890 1
32983 29838 29891 1
32984 29838 29892 1
32985 29846 29893 1
32986 29849 29894 1
32987 29855 29895 1
32988 29855 29896 1
32989 29856 29897 1
32990 29856 29898 1
32991 29857 29899 1
32992 29857 29900 1
32993 29858 29901 1
32994 29860 29902 1
32995 29861 29903 1
32996 29861 29904 1
32997 29864 29905 1
32998 29868 29906 1
32999 29870 29907 1
33000 29873 29908 1
33001 29874 29909 1
33002 29875 29910 1
33003 29876 29911 1
33004 29876 29912 1
33005 29876 29913 1
33006 29877 29914 1
33007 29878 29915 1
33008 29879 29916 1
33009 29879 29917 1
33010 29879 29918 1
33011 29880 29919 1
33012 29881 29920 1
33013 29882 29921 1
33014 29846 29922 1
33015 29849 29923 1
33016 29878 29924 1
33017 29925 29926 am
33018 29926 29927 am
33019 29927 29928 am
33020 29928 29929 am
33021 29929 29930 am
33022 29930 29925 am
33023 29931 29932 am
33024 29932 29933 1
33025 29927 29933 1
33026 29928 29931 1
33027 29934 29935 am
33028 29935 29936 am
33029 29936 29937 am
33030 29931 29937 am
33031 29932 29934 am
33032 29938 29939 1
33033 29939 29940 1
33034 29940 29941 1
33035 29936 29941 1
33036 29937 29938 1
33037 29942 29943 am
33038 29943 29944 am
33039 29935 29944 am
33040 29941 29942 am
33041 29945 29946 am
33042 29946 29947 am
33043 29934 29947 am
33044 29944 29945 am
33045 29948 29949 1
33046 29949 29950 am
33047 29950 29951 1
33048 29942 29951 1
33049 29943 29948 1
33050 29952 29953 am
33051 29953 29954 am
33052 29954 29955 am
33053 29949 29955 am
33054 29950 29952 am
33055 29956 29957 1
33056 29957 29958 1
33057 29958 29959 1
33058 29953 29959 1
33059 29954 29956 1
33060 29960 29961 am
33061 29961 29962 am
33062 29955 29960 am
33063 29956 29962 am
33064 29963 29964 1
33065 29964 29965 am
33066 29945 29965 am
33067 29946 29963 1
33068 29966 29967 am
33069 29967 29968 am
33070 29968 29969 am
33071 29964 29969 am
33072 29965 29966 am
33073 29970 29971 am
33074 29971 29972 am
33075 29972 29973 am
33076 29968 29973 am
33077 29969 29970 am
33078 29974 29975 am
33079 29975 29976 am
33080 29967 29976 am
33081 29973 29974 am
33082 29925 29977 1
33083 29930 29978 1
33084 29947 29979 1
33085 29971 29980 1
33086 29980 29981 1
33087 29961 29982 1
33088 29952 29983 1
33089 29974 29984 1
33090 29926 29985 1
33091 29929 29986 1
33092 29933 29987 1
33093 29933 29988 1
33094 29938 29989 1
33095 29938 29990 1
33096 29939 29991 1
33097 29939 29992 1
33098 29940 29993 1
33099 29940 29994 1
33100 29948 29995 1
33101 29951 29996 1
33102 29957 29997 1
33103 29957 29998 1
33104 29958 29999 1
33105 29958 30000 1
33106 29959 30001 1
33107 29959 30002 1
33108 29960 30003 1
33109 29962 30004 1
33110 29963 30005 1
33111 29963 30006 1
33112 29966 30007 1
33113 29970 30008 1
33114 29972 30009 1
33115 29975 30010 1
33116 29976 30011 1
33117 29977 30012 1
33118 29978 30013 1
33119 29978 30014 1
33120 29978 30015 1
33121 29979 30016 1
33122 29980 30017 1
33123 29981 30018 1
33124 29981 30019 1
33125 29981 30020 1
33126 29982 30021 1
33127 29983 30022 1
33128 29984 30023 1
33129 29948 30024 1
33130 29951 30025 1
33131 29980 30026 1
33132 30027 30028 am
33133 30028 30029 am
33134 30029 30030 am
33135 30030 30031 am
33136 30031 30032 am
33137 30032 30027 am
33138 30033 30034 am
33139 30034 30035 1
33140 30029 30035 1
33141 30030 30033 1
33142 30036 30037 am
33143 30037 30038 am
33144 30038 30039 am
33145 30033 30039 am
33146 30034 30036 am
33147 30040 30041 1
33148 30041 30042 1
33149 30042 30043 1
33150 30038 30043 1
33151 30039 30040 1
33152 30044 30045 am
33153 30045 30046 am
33154 30037 30046 am
33155 30043 30044 am
33156 30047 30048 am
33157 30048 30049 am
33158 30036 30049 am
33159 30046 30047 am
33160 30050 30051 1
33161 30051 30052 am
33162 30052 30053 1
33163 30044 30053 1
33164 30045 30050 1
33165 30054 30055 am
33166 30055 30056 am
33167 30056 30057 am
33168 30051 30057 am
33169 30052 30054 am
33170 30058 30059 1
33171 30059 30060 1
33172 30060 30061 1
33173 30055 30061 1
33174 30056 30058 1
33175 30062 30063 am
33176 30063 30064 am
33177 30057 30062 am
33178 30058 30064 am
33179 30065 30066 1
33180 30066 30067 am
33181 30047 30067 am
33182 30048 30065 1
33183 30068 30069 am
33184 30069 30070 am
33185 30070 30071 am
33186 30066 30071 am
33187 30067 30068 am
33188 30072 30073 am
33189 30073 30074 am
33190 30074 30075 am
33191 30070 30075 am
33192 30071 30072 am
33193 30076 30077 am
33194 30077 30078 am
33195 30069 30078 am
33196 30075 30076 am
33197 30027 30079 1
33198 30032 30080 1
33199 30049 30081 1
33200 30073 30082 1
33201 30082 30083 1
33202 30063 30084 1
33203 30054 30085 1
33204 30076 30086 1
33205 30028 30087 1
33206 30031 30088 1
33207 30035 30089 1
33208 30035 30090 1
33209 30040 30091 1
33210 30040 30092 1
33211 30041 30093 1
33212 30041 30094 1
33213 30042 30095 1
33214 30042 30096 1
33215 30050 30097 1
33216 30053 30098 1
33217 30059 30099 1
33218 30059 30100 1
33219 30060 30101 1
33220 30060 30102 1
33221 30061 30103 1
33222 30061 30104 1
33223 30062 30105 1
33224 30064 30106 1
33225 30065 30107 1
33226 30065 30108 1
33227 30068 30109 1
33228 30072 30110 1
33229 30074 30111 1
33230 30077 30112 1
33231 30078 30113 1
33232 30079 30114 1
33233 30080 30115 1
33234 30080 30116 1
33235 30080 30117 1
33236 30081 30118 1
33237 30082 30119 1
33238 30083 30120 1
33239 30083 30121 1
33240 30083 30122 1
33241 30084 30123 1
33242 30085 30124 1
33243 30086 30125 1
33244 30050 30126 1
33245 30053 30127 1
33246 30082 30128 1
33247 30129 30130 am
33248 30130 30131 am
33249 30131 30132 am
33250 30132 30133 am
33251 30133 30134 am
33252 30134 30129 am
33253 30135 30136 am
33254 30136 30137 1
33255 30131 30137 1
33256 30132 30135 1
33257 30138 30139 am
33258 30139 30140 am
33259 30140 30141 am
33260 30135 30141 am
33261 30136 30138 am
33262 30142 30143 1
33263 30143 30144 1
33264 30144 30145 1
33265 30140 30145 1
33266 30141 30142 1
33267 30146 30147 am
33268 30147 30148 am
33269 30139 30148 am
33270 30145 30146 am
33271 30149 30150 am
33272 30150 30151 am
33273 30138 30151 am
33274 30148 30149 am
33275 30152 30153 1
33276 30153 30154 am
33277 30154 30155 1
33278 30146 30155 1
33279 30147 30152 1
33280 30156 30157 am
33281 30157 30158 am
33282 30158 30159 am
33283 30153 30159 am
33284 30154 30156 am
33285 30160 30161 1
33286 30161 30162 1
33287 30162 30163 1
33288 30157 30163 1
33289 30158 30160 1
33290 30164 30165 am
33291 30165 30166 am
33292 30159 30164 am
33293 30160 30166 am
33294 30167 30168 1
33295 30168 30169 am
33296 30149 30169 am
33297 30150 30167 1
33298 30170 30171 am
33299 30171 30172 am
33300 30172 30173 am
33301 30168 30173 am
33302 30169 30170 am
33303 30174 30175 am
33304 30175 30176 am
33305 30176 30177 am
33306 30172 30177 am
33307 30173 30174 am
33308 30178 30179 am
33309 30179 30180 am
33310 30171 30180 am
33311 30177 30178 am
33312 30129 30181 1
33313 30134 30182 1
33314 30151 30183 1
33315 30175 30184 1
33316 30184 30185 1
33317 30165 30186 1
33318 30156 30187 1
33319 30178 30188 1
33320 30130 30189 1
33321 30133 30190 1
33322 30137 30191 1
33323 30137 30192 1
33324 30142 30193 1
33325 30142 30194 1
33326 30143 30195 1
33327 30143 30196 1
33328 30144 30197 1
33329 30144 30198 1
33330 30152 30199 1
33331 30155 30200 1
33332 30161 30201 1
33333 30161 30202 1
33334 30162 30203 1
33335 30162 30204 1
33336 30163 30205 1
33337 30163 30206 1
33338 30164 30207 1
33339 30166 30208 1
33340 30167 30209 1
33341 30167 30210 1
33342 30170 30211 1
33343 30174 30212 1
33344 30176 30213 1
33345 30179 30214 1
33346 30180 30215 1
33347 30181 30216 1
33348 30182 30217 1
33349 30182 30218 1
33350 30182 30219 1
33351 30183 30220 1
33352 30184 30221 1
33353 30185 30222 1
33354 30185 30223 1
33355 30185 30224 1
33356 30186 30225 1
33357 30187 30226 1
33358 30188 30227 1
33359 30152 30228 1
33360 30155 30229 1
33361 30184 30230 1
33362 30231 30232 am
33363 30232 30233 am
33364 30233 30234 am
33365 30234 30235 am
33366 30235 30236 am
33367 30236 30231 am
33368 30237 30238 am
33369 30238 30239 1
33370 30233 30239 1
33371 30234 30237 1
33372 30240 30241 am
33373 30241 30242 am
33374 30242 30243 am
33375 30237 30243 am
33376 30238 30240 am
33377 30244 30245 1
33378 30245 30246 1
33379 30246 30247 1
33380 30242 30247 1
33381 30243 30244 1
33382 30248 30249 am
33383 30249 30250 am
33384 30241 30250 am
33385 30247 30248 am
33386 30251 30252 am
33387 30252 30253 am
33388 30240 30253 am
33389 30250 30251 am
33390 30254 30255 1
33391 30255 30256 am
33392 30256 30257 1
33393 30248 30257 1
33394 30249 30254 1
33395 30258 30259 am
33396 30259 30260 am
33397 30260 30261 am
33398 30255 30261 am
33399 30256 30258 am
33400 30262 30263 1
33401 30263 30264 1
33402 30264 30265 1
33403 30259 30265 1
33404 30260 30262 1
33405 30266 30267 am
33406 30267 30268 am
33407 30261 30266 am
33408 30262 30268 am
33409 30269 30270 1
33410 30270 30271 am
33411 30251 30271 am
33412 30252 30269 1
33413 30272 30273 am
33414 30273 30274 am
33415 30274 30275 am
33416 30270 30275 am
33417 30271 30272 am
33418 30276 30277 am
33419 30277 30278 am
33420 30278 30279 am
33421 30274 30279 am
33422 30275 30276 am
33423 30280 30281 am
33424 30281 30282 am
33425 30273 30282 am
33426 30279 30280 am
33427 30231 30283 1
33428 30236 30284 1
33429 30253 30285 1
33430 30277 30286 1
33431 30286 30287 1
33432 30267 30288 1
33433 30258 30289 1
33434 30280 30290 1
33435 30232 30291 1
33436 30235 30292 1
33437 30239 30293 1
33438 30239 30294 1
33439 30244 30295 1
33440 30244 30296 1
33441 30245 30297 1
33442 30245 30298 1
33443 30246 30299 1
33444 30246 30300 1
33445 30254 30301 1
33446 30257 30302 1
33447 30263 30303 1
33448 30263 30304 1
33449 30264 30305 1
33450 30264 30306 1
33451 30265 30307 1
33452 30265 30308 1
33453 30266 30309 1
33454 30268 30310 1
33455 30269 30311 1
33456 30269 30312 1
33457 30272 30313 1
33458 30276 30314 1
33459 30278 30315 1
33460 30281 30316 1
33461 30282 30317 1
33462 30283 30318 1
33463 30284 30319 1
33464 30284 30320 1
33465 30284 30321 1
33466 30285 30322 1
33467 30286 30323 1
33468 30287 30324 1
33469 30287 30325 1
33470 30287 30326 1
33471 30288 30327 1
33472 30289 30328 1
33473 30290 30329 1
33474 30254 30330 1
33475 30257 30331 1
33476 30286 30332 1
33477 30333 30334 am
33478 30334 30335 am
33479 30335 30336 am
33480 30336 30337 am
33481 30337 30338 am
33482 30338 30333 am
33483 30339 30340 am
33484 30340 30341 1
33485 30335 30341 1
33486 30336 30339 1
33487 30342 30343 am
33488 30343 30344 am
33489 30344 30345 am
33490 30339 30345 am
33491 30340 30342 am
33492 30346 30347 1
33493 30347 30348 1
33494 30348 30349 1
33495 30344 30349 1
33496 30345 30346 1
33497 30350 30351 am
33498 30351 30352 am
33499 30343 30352 am
33500 30349 30350 am
33501 30353 30354 am
33502 30354 30355 am
33503 30342 30355 am
33504 30352 30353 am
33505 30356 30357 1
33506 30357 30358 am
33507 30358 30359 1
33508 30350 30359 1
33509 30351 30356 1
33510 30360 30361 am
33511 30361 30362 am
33512 30362 30363 am
33513 30357 30363 am
33514 30358 30360 am
33515 30364 30365 1
33516 30365 30366 1
33517 30366 30367 1
33518 30361 30367 1
33519 30362 30364 1
33520 30368 30369 am
33521 30369 30370 am
33522 30363 30368 am
33523 30364 30370 am
33524 30371 30372 1
33525 30372 30373 am
33526 30353 30373 am
33527 30354 30371 1
33528 30374 30375 am
33529 30375 30376 am
33530 30376 30377 am
33531 30372 30377 am
33532 30373 30374 am
33533 30378 30379 am
33534 30379 30380 am
33535 30380 30381 am
33536 30376 30381 am
33537 30377 30378 am
33538 30382 30383 am
33539 30383 30384 am
33540 30375 30384 am
33541 30381 30382 am
33542 30333 30385 1
33543 30338 30386 1
33544 30355 30387 1
33545 30379 30388 1
33546 30388 30389 1
33547 30369 30390 1
33548 30360 30391 1
33549 30382 30392 1
33550 30334 30393 1
33551 30337 30394 1
33552 30341 30395 1
33553 30341 30396 1
33554 30346 30397 1
33555 30346 30398 1
33556 30347 30399 1
33557 30347 30400 1
33558 30348 30401 1
33559 30348 30402 1
33560 30356 30403 1
33561 30359 30404 1
33562 30365 30405 1
33563 30365 30406 1
33564 30366 30407 1
33565 30366 30408 1
33566 30367 30409 1
33567 30367 30410 1
33568 30368 30411 1
33569 30370 30412 1
33570 30371 30413 1
33571 30371 30414 1
33572 30374 30415 1
33573 30378 30416 1
33574 30380 30417 1
33575 30383 30418 1
33576 30384 30419 1
33577 30385 30420 1
33578 30386 30421 1
33579 30386 30422 1
33580 30386 30423 1
33581 30387 30424 1
33582 30388 30425 1
33583 30389 30426 1
33584 30389 30427 1
33585 30389 30428 1
33586 30390 30429 1
33587 30391 30430 1
33588 30392 30431 1
33589 30356 30432 1
33590 30359 30433 1
33591 30388 30434 1
33592 30435 30436 am
33593 30436 30437 am
33594 30437 30438 am
33595 30438 30439 am
33596 30439 30440 am
33597 30440 30435 am
33598 30441 30442 am
33599 30442 30443 1
33600 30437 30443 1
33601 30438 30441 1
33602 30444 30445 am
33603 30445 30446 am
33604 30446 30447 am
33605 30441 30447 am
33606 30442 30444 am
33607 30448 30449 1
33608 30449 30450 1
33609 30450 30451 1
33610 30446 30451 1
33611 30447 30448 1
33612 30452 30453 am
33613 30453 30454 am
33614 30445 30454 am
33615 30451 30452 am
33616 30455 30456 am
33617 30456 30457 am
33618 30444 30457 am
33619 30454 30455 am
33620 30458 30459 1
33621 30459 30460 am
33622 30460 30461 1
33623 30452 30461 1
33624 30453 30458 1
33625 30462 30463 am
33626 30463 30464 am
33627 30464 30465 am
33628 30459 30465 am
33629 30460 30462 am
33630 30466 30467 1
33631 30467 30468 1
33632 30468 30469 1
33633 30463 30469 1
33634 30464 30466 1
33635 30470 30471 am
33636 30471 30472 am
33637 30465 30470 am
33638 30466 30472 am
33639 30473 30474 1
33640 30474 30475 am
33641 30455 30475 am
33642 30456 30473 1
33643 30476 30477 am
33644 30477 30478 am
33645 30478 30479 am
33646 30474 30479 am
33647 30475 30476 am
33648 30480 30481 am
33649 30481 30482 am
33650 30482 30483 am
33651 30478 30483 am
33652 30479 30480 am
33653 30484 30485 am
33654 30485 30486 am
33655 30477 30486 am
33656 30483 30484 am
33657 30435 30487 1
33658 30440 30488 1
33659 30457 30489 1
33660 30481 30490 1
33661 30490 30491 1
33662 30471 30492 1
33663 30462 30493 1
33664 30484 30494 1
33665 30436 30495 1
33666 30439 30496 1
33667 30443 30497 1
33668 30443 30498 1
33669 30448 30499 1
33670 30448 30500 1
33671 30449 30501 1
33672 30449 30502 1
33673 30450 30503 1
33674 30450 30504 1
33675 30458 30505 1
33676 30461 30506 1
33677 30467 30507 1
33678 30467 30508 1
33679 30468 30509 1
33680 30468 30510 1
33681 30469 30511 1
33682 30469 30512 1
33683 30470 30513 1
33684 30472 30514 1
33685 30473 30515 1
33686 30473 30516 1
33687 30476 30517 1
33688 30480 30518 1
33689 30482 30519 1
33690 30485 30520 1
33691 30486 30521 1
33692 30487 30522 1
33693 30488 30523 1
33694 30488 30524 1
33695 30488 30525 1
33696 30489 30526 1
33697 30490 30527 1
33698 30491 30528 1
33699 30491 30529 1
33700 30491 30530 1
33701 30492 30531 1
33702 30493 30532 1
33703 30494 30533 1
33704 30458 30534 1
33705 30461 30535 1
33706 30490 30536 1
33707 30537 30538 am
33708 30538 30539 am
33709 30539 30540 am
33710 30540 30541 am
33711 30541 30542 am
33712 30542 30537 am
33713 30543 30544 am
33714 30544 30545 1
33715 30539 30545 1
33716 30540 30543 1
33717 30546 30547 am
33718 30547 30548 am
33719 30548 30549 am
33720 30543 30549 am
33721 30544 30546 am
33722 30550 30551 1
33723 30551 30552 1
33724 30552 30553 1
33725 30548 30553 1
33726 30549 30550 1
33727 30554 30555 am
33728 30555 30556 am
33729 30547 30556 am
33730 30553 30554 am
33731 30557 30558 am
33732 30558 30559 am
33733 30546 30559 am
33734 30556 30557 am
33735 30560 30561 1
33736 30561 30562 am
33737 30562 30563 1
33738 30554 30563 1
33739 30555 30560 1
33740 30564 30565 am
33741 30565 30566 am
33742 30566 30567 am
33743 30561 30567 am
33744 30562 30564 am
33745 30568 30569 1
33746 30569 30570 1
33747 30570 30571 1
33748 30565 30571 1
33749 30566 30568 1
33750 30572 30573 am
33751 30573 30574 am
33752 30567 30572 am
33753 30568 30574 am
33754 30575 30576 1
33755 30576 30577 am
33756 30557 30577 am
33757 30558 30575 1
33758 30578 30579 am
33759 30579 30580 am
33760 30580 30581 am
33761 30576 30581 am
33762 30577 30578 am
33763 30582 30583 am
33764 30583 30584 am
33765 30584 30585 am
33766 30580 30585 am
33767 30581 30582 am
33768 30586 30587 am
33769 30587 30588 am
33770 30579 30588 am
33771 30585 30586 am
33772 30537 30589 1
33773 30542 30590 1
33774 30559 30591 1
33775 30583 30592 1
33776 30592 30593 1
33777 30573 30594 1
33778 30564 30595 1
33779 30586 30596 1
33780 30538 30597 1
33781 30541 30598 1
33782 30545 30599 1
33783 30545 30600 1
33784 30550 30601 1
33785 30550 30602 1
33786 30551 30603 1
33787 30551 30604 1
33788 30552 30605 1
33789 30552 30606 1
33790 30560 30607 1
33791 30563 30608 1
33792 30569 30609 1
33793 30569 30610 1
33794 30570 30611 1
33795 30570 30612 1
33796 30571 30613 1
33797 30571 30614 1
33798 30572 30615 1
33799 30574 30616 1
33800 30575 30617 1
33801 30575 30618 1
33802 30578 30619 1
33803 30582 30620 1
33804 30584 30621 1
33805 30587 30622 1
33806 30588 30623 1
33807 30589 30624 1
33808 30590 30625 1
33809 30590 30626 1
33810 30590 30627 1
33811 30591 30628 1
33812 30592 30629 1
33813 30593 30630 1
33814 30593 30631 1
33815 30593 30632 1
33816 30594 30633 1
33817 30595 30634 1
33818 30596 30635 1
33819 30560 30636 1
33820 30563 30637 1
33821 30592 30638 1
33822 30639 30640 am
33823 30640 30641 am
33824 30641 30642 am
33825 30642 30643 am
33826 30643 30644 am
33827 30644 30639 am
33828 30645 30646 am
33829 30646 30647 1
33830 30641 30647 1
33831 30642 30645 1
33832 30648 30649 am
33833 30649 30650 am
33834 30650 30651 am
33835 30645 30651 am
33836 30646 30648 am
33837 30652 30653 1
33838 30653 30654 1
33839 30654 30655 1
33840 30650 30655 1
33841 30651 30652 1
33842 30656 30657 am
33843 30657 30658 am
33844 30649 30658 am
33845 30655 30656 am
33846 30659 30660 am
33847 30660 30661 am
33848 30648 30661 am
33849 30658 30659 am
33850 30662 30663 1
33851 30663 30664 am
33852 30664 30665 1
33853 30656 30665 1
33854 30657 30662 1
33855 30666 30667 am
33856 30667 30668 am
33857 30668 30669 am
33858 30663 30669 am
33859 30664 30666 am
33860 30670 30671 1
33861 30671 30672 1
33862 30672 30673 1
33863 30667 30673 1
33864 30668 30670 1
33865 30674 30675 am
33866 30675 30676 am
33867 30669 30674 am
33868 30670 30676 am
33869 30677 30678 1
33870 30678 30679 am
33871 30659 30679 am
33872 30660 30677 1
33873 30680 30681 am
33874 30681 30682 am
33875 30682 30683 am
33876 30678 30683 am
33877 30679 30680 am
33878 30684 30685 am
33879 30685 30686 am
33880 30686 30687 am
33881 30682 30687 am
33882 30683 30684 am
33883 30688 30689 am
33884 30689 30690 am
33885 30681 30690 am
33886 30687 30688 am
33887 30639 30691 1
33888 30644 30692 1
33889 30661 30693 1
33890 30685 30694 1
33891 30694 30695 1
33892 30675 30696 1
33893 30666 30697 1
33894 30688 30698 1
33895 30640 30699 1
33896 30643 30700 1
33897 30647 30701 1
33898 30647 30702 1
33899 30652 30703 1
33900 30652 30704 1
33901 30653 30705 1
33902 30653 30706 1
33903 30654 30707 1
33904 30654 30708 1
33905 30662 30709 1
33906 30665 30710 1
33907 30671 30711 1
33908 30671 30712 1
33909 30672 30713 1
33910 30672 30714 1
33911 30673 30715 1
33912 30673 30716 1
33913 30674 30717 1
33914 30676 30718 1
33915 30677 30719 1
33916 30677 30720 1
33917 30680 30721 1
33918 30684 30722 1
33919 30686 30723 1
33920 30689 30724 1
33921 30690 30725 1
33922 30691 30726 1
33923 30692 30727 1
33924 30692 30728 1
33925 30692 30729 1
33926 30693 30730 1
33927 30694 30731 1
33928 30695 30732 1
33929 30695 30733 1
33930 30695 30734 1
33931 30696 30735 1
33932 30697 30736 1
33933 30698 30737 1
33934 30662 30738 1
33935 30665 30739 1
33936 30694 30740 1
33937 30741 30742 am
33938 30742 30743 am
33939 30743 30744 am
33940 30744 30745 am
33941 30745 30746 am
33942 30746 30741 am
33943 30747 30748 am
33944 30748 30749 1
33945 30743 30749 1
33946 30744 30747 1
33947 30750 30751 am
33948 30751 30752 am
33949 30752 30753 am
33950 30747 30753 am
33951 30748 30750 am
33952 30754 30755 1
33953 30755 30756 1
33954 30756 30757 1
33955 30752 30757 1
33956 30753 30754 1
33957 30758 30759 am
33958 30759 30760 am
33959 30751 30760 am
33960 30757 30758 am
33961 30761 30762 am
33962 30762 30763 am
33963 30750 30763 am
33964 30760 30761 am
33965 30764 30765 1
33966 30765 30766 am
33967 30766 30767 1
33968 30758 30767 1
33969 30759 30764 1
33970 30768 30769 am
33971 30769 30770 am
33972 30770 30771 am
33973 30765 30771 am
33974 30766 30768 am
33975 30772 30773 1
33976 30773 30774 1
33977 30774 30775 1
33978 30769 30775 1
33979 30770 30772 1
33980 30776 30777 am
33981 30777 30778 am
33982 30771 30776 am
33983 30772 30778 am
33984 30779 30780 1
33985 30780 30781 am
33986 30761 30781 am
33987 30762 30779 1
33988 30782 30783 am
33989 30783 30784 am
33990 30784 30785 am
33991 30780 30785 am
33992 30781 30782 am
33993 30786 30787 am
33994 30787 30788 am
33995 30788 30789 am
33996 30784 30789 am
33997 30785 30786 am
33998 30790 30791 am
33999 30791 30792 am
34000 30783 30792 am
34001 30789 30790 am
34002 30741 30793 1
34003 30746 30794 1
34004 30763 30795 1
34005 30787 30796 1
34006 30796 30797 1
34007 30777 30798 1
34008 30768 30799 1
34009 30790 30800 1
34010 30742 30801 1
34011 30745 30802 1
34012 30749 30803 1
34013 30749 30804 1
34014 30754 30805 1
34015 30754 30806 1
34016 30755 30807 1
34017 30755 30808 1
34018 30756 30809 1
34019 30756 30810 1
34020 30764 30811 1
34021 30767 30812 1
34022 30773 30813 1
34023 30773 30814 1
34024 30774 30815 1
34025 30774 30816 1
34026 30775 30817 1
34027 30775 30818 1
34028 30776 30819 1
34029 30778 30820 1
34030 30779 30821 1
34031 30779 30822 1
34032 30782 30823 1
34033 30786 30824 1
34034 30788 30825 1
34035 30791 30826 1
34036 30792 30827 1
34037 30793 30828 1
34038 30794 30829 1
34039 30794 30830 1
34040 30794 30831 1
34041 30795 30832 1
34042 30796 30833 1
34043 30797 30834 1
34044 30797 30835 1
34045 30797 30836 1
34046 30798 30837 1
34047 30799 30838 1
34048 30800 30839 1
34049 30764 30840 1
34050 30767 30841 1
34051 30796 30842 1
34052 30843 30844 am
34053 30844 30845 am
34054 30845 30846 am
34055 30846 30847 am
34056 30847 30848 am
34057 30848 30843 am
34058 30849 30850 am
34059 30850 30851 1
34060 30845 30851 1
34061 30846 30849 1
34062 30852 30853 am
34063 30853 30854 am
34064 30854 30855 am
34065 30849 30855 am
34066 30850 30852 am
34067 30856 30857 1
34068 30857 30858 1
34069 30858 30859 1
34070 30854 30859 1
34071 30855 30856 1
34072 30860 30861 am
34073 30861 30862 am
34074 30853 30862 am
34075 30859 30860 am
34076 30863 30864 am
34077 30864 30865 am
34078 30852 30865 am
34079 30862 30863 am
34080 30866 30867 1
34081 30867 30868 am
34082 30868 30869 1
34083 30860 30869 1
34084 30861 30866 1
34085 30870 30871 am
34086 30871 30872 am
34087 30872 30873 am
34088 30867 30873 am
34089 30868 30870 am
34090 30874 30875 1
34091 30875 30876 1
34092 30876 30877 1
34093 30871 30877 1
34094 30872 30874 1
34095 30878 30879 am
34096 30879 30880 am
34097 30873 30878 am
34098 30874 30880 am
34099 30881 30882 1
34100 30882 30883 am
34101 30863 30883 am
34102 30864 30881 1
34103 30884 30885 am
34104 30885 30886 am
34105 30886 30887 am
34106 30882 30887 am
34107 30883 30884 am
34108 30888 30889 am
34109 30889 30890 am
34110 30890 30891 am
34111 30886 30891 am
34112 30887 30888 am
34113 30892 30893 am
34114 30893 30894 am
34115 30885 30894 am
34116 30891 30892 am
34117 30843 30895 1
34118 30848 30896 1
34119 30865 30897 1
34120 30889 30898 1
34121 30898 30899 1
34122 30879 30900 1
34123 30870 30901 1
34124 30892 30902 1
34125 30844 30903 1
34126 30847 30904 1
34127 30851 30905 1
34128 30851 30906 1
34129 30856 30907 1
34130 30856 30908 1
34131 30857 30909 1
34132 30857 30910 1
34133 30858 30911 1
34134 30858 30912 1
34135 30866 30913 1
34136 30869 30914 1
34137 30875 30915 1
34138 30875 30916 1
34139 30876 30917 1
34140 30876 30918 1
34141 30877 30919 1
34142 30877 30920 1
34143 30878 30921 1
34144 30880 30922 1
34145 30881 30923 1
34146 30881 30924 1
34147 30884 30925 1
34148 30888 30926 1
34149 30890 30927 1
34150 30893 30928 1
34151 30894 30929 1
34152 30895 30930 1
34153 30896 30931 1
34154 30896 30932 1
34155 30896 30933 1
34156 30897 30934 1
34157 30898 30935 1
34158 30899 30936 1
34159 30899 30937 1
34160 30899 30938 1
34161 30900 30939 1
34162 30901 30940 1
34163 30902 30941 1
34164 30866 30942 1
34165 30869 30943 1
34166 30898 30944 1
34167 30945 30946 am
34168 30946 30947 am
34169 30947 30948 am
34170 30948 30949 am
34171 30949 30950 am
34172 30950 30945 am
34173 30951 30952 am
34174 30952 30953 1
34175 30947 30953 1
34176 30948 30951 1
34177 30954 30955 am
34178 30955 30956 am
34179 30956 30957 am
34180 30951 30957 am
34181 30952 30954 am
34182 30958 30959 1
34183 30959 30960 1
34184 30960 30961 1
34185 30956 30961 1
34186 30957 30958 1
34187 30962 30963 am
34188 30963 30964 am
34189 30955 30964 am
34190 30961 30962 am
34191 30965 30966 am
34192 30966 30967 am
34193 30954 30967 am
34194 30964 30965 am
34195 30968 30969 1
34196 30969 30970 am
34197 30970 30971 1
34198 30962 30971 1
34199 30963 30968 1
34200 30972 30973 am
34201 30973 30974 am
34202 30974 30975 am
34203 30969 30975 am
34204 30970 30972 am
34205 30976 30977 1
34206 30977 30978 1
34207 30978 30979 1
34208 30973 30979 1
34209 30974 30976 1
34210 30980 30981 am
34211 30981 30982 am
34212 30975 30980 am
34213 30976 30982 am
34214 30983 30984 1
34215 30984 30985 am
34216 30965 30985 am
34217 30966 30983 1
34218 30986 30987 am
34219 30987 30988 am
34220 30988 30989 am
34221 30984 30989 am
34222 30985 30986 am
34223 30990 30991 am
34224 30991 30992 am
34225 30992 30993 am
34226 30988 30993 am
34227 30989 30990 am
34228 30994 30995 am
34229 30995 30996 am
34230 30987 30996 am
34231 30993 30994 am
34232 30945 30997 1
34233 30950 30998 1
34234 30967 30999 1
34235 30991 31000 1
34236 31000 31001 1
34237 30981 31002 1
34238 30972 31003 1
34239 30994 31004 1
34240 30946 31005 1
34241 30949 31006 1
34242 30953 31007 1
34243 30953 31008 1
34244 30958 31009 1
34245 30958 31010 1
34246 30959 31011 1
34247 30959 31012 1
34248 30960 31013 1
34249 30960 31014 1
34250 30968 31015 1
34251 30971 31016 1
34252 30977 31017 1
34253 30977 31018 1
34254 30978 31019 1
34255 30978 31020 1
34256 30979 31021 1
34257 30979 31022 1
34258 30980 31023 1
34259 30982 31024 1
34260 30983 31025 1
34261 30983 31026 1
34262 30986 31027 1
34263 30990 31028 1
34264 30992 31029 1
34265 30995 31030 1
34266 30996 31031 1
34267 30997 31032 1
34268 30998 31033 1
34269 30998 31034 1
34270 30998 31035 1
34271 30999 31036 1
34272 31000 31037 1
34273 31001 31038 1
34274 31001 31039 1
34275 31001 31040 1
34276 31002 31041 1
34277 31003 31042 1
34278 31004 31043 1
34279 30968 31044 1
34280 30971 31045 1
34281 31000 31046 1
34282 31047 31048 am
34283 31048 31049 am
34284 31049 31050 am
34285 31050 31051 am
34286 31051 31052 am
34287 31052 31047 am
34288 31053 31054 am
34289 31054 31055 1
34290 31049 31055 1
34291 31050 31053 1
34292 31056 31057 am
34293 31057 31058 am
34294 31058 31059 am
34295 31053 31059 am
34296 31054 31056 am
34297 31060 31061 1
34298 31061 31062 1
34299 31062 31063 1
34300 31058 31063 1
34301 31059 31060 1
34302 31064 31065 am
34303 31065 31066 am
34304 31057 31066 am
34305 31063 31064 am
34306 31067 31068 am
34307 31068 31069 am
34308 31056 31069 am
34309 31066 31067 am
34310 31070 31071 1
34311 31071 31072 am
34312 31072 31073 1
34313 31064 31073 1
34314 31065 31070 1
34315 31074 31075 am
34316 31075 31076 am
34317 31076 31077 am
34318 31071 31077 am
34319 31072 31074 am
34320 31078 31079 1
34321 31079 31080 1
34322 31080 31081 1
34323 31075 31081 1
34324 31076 31078 1
34325 31082 31083 am
34326 31083 31084 am
34327 31077 31082 am
34328 31078 31084 am
34329 31085 31086 1
34330 31086 31087 am
34331 31067 31087 am
34332 31068 31085 1
34333 31088 31089 am
34334 31089 31090 am
34335 31090 31091 am
34336 31086 31091 am
34337 31087 31088 am
34338 31092 31093 am
34339 31093 31094 am
34340 31094 31095 am
34341 31090 31095 am
34342 31091 31092 am
34343 31096 31097 am
34344 31097 31098 am
34345 31089 31098 am
34346 31095 31096 am
34347 31047 31099 1
34348 31052 31100 1
34349 31069 31101 1
34350 31093 31102 1
34351 31102 31103 1
34352 31083 31104 1
34353 31074 31105 1
34354 31096 31106 1
34355 31048 31107 1
34356 31051 31108 1
34357 31055 31109 1
34358 31055 31110 1
34359 31060 31111 1
34360 31060 31112 1
34361 31061 31113 1
34362 31061 31114 1
34363 31062 31115 1
34364 31062 31116 1
34365 31070 31117 1
34366 31073 31118 1
34367 31079 31119 1
34368 31079 31120 1
34369 31080 31121 1
34370 31080 31122 1
34371 31081 31123 1
34372 31081 31124 1
34373 31082 31125 1
34374 31084 31126 1
34375 31085 31127 1
34376 31085 31128 1
34377 31088 31129 1
34378 31092 31130 1
34379 31094 31131 1
34380 31097 31132 1
34381 31098 31133 1
34382 31099 31134 1
34383 31100 31135 1
34384 31100 31136 1
34385 31100 31137 1
34386 31101 31138 1
34387 31102 31139 1
34388 31103 31140 1
34389 31103 31141 1
34390 31103 31142 1
34391 31104 31143 1
34392 31105 31144 1
34393 31106 31145 1
34394 31070 31146 1
34395 31073 31147 1
34396 31102 31148 1
34397 31149 31150 am
34398 31150 31151 am
34399 31151 31152 am
34400 31152 31153 am
34401 31153 31154 am
34402 31154 31149 am
34403 31155 31156 am
34404 31156 31157 1
34405 31151 31157 1
34406 31152 31155 1
34407 31158 31159 am
34408 31159 31160 am
34409 31160 31161 am
34410 31155 31161 am
34411 31156 31158 am
34412 31162 31163 1
34413 31163 31164 1
34414 31164 31165 1
34415 31160 31165 1
34416 31161 31162 1
34417 31166 31167 am
34418 31167 31168 am
34419 31159 31168 am
34420 31165 31166 am
34421 31169 31170 am
34422 31170 31171 am
34423 31158 31171 am
34424 31168 31169 am
34425 31172 31173 1
34426 31173 31174 am
34427 31174 31175 1
34428 31166 31175 1
34429 31167 31172 1
34430 31176 31177 am
34431 31177 31178 am
34432 31178 31179 am
34433 31173 31179 am
34434 31174 31176 am
34435 31180 31181 1
34436 31181 31182 1
34437 31182 31183 1
34438 31177 31183 1
34439 31178 31180 1
34440 31184 31185 am
34441 31185 31186 am
34442 31179 31184 am
34443 31180 31186 am
34444 31187 31188 1
34445 31188 31189 am
34446 31169 31189 am
34447 31170 31187 1
34448 31190 31191 am
34449 31191 31192 am
34450 31192 31193 am
34451 31188 31193 am
34452 31189 31190 am
34453 31194 31195 am
34454 31195 31196 am
34455 31196 31197 am
34456 31192 31197 am
34457 31193 31194 am
34458 31198 31199 am
34459 31199 31200 am
34460 31191 31200 am
34461 31197 31198 am
34462 31149 31201 1
34463 31154 31202 1
34464 31171 31203 1
34465 31195 31204 1
34466 31204 31205 1
34467 31185 31206 1
34468 31176 31207 1
34469 31198 31208 1
34470 31150 31209 1
34471 31153 31210 1
34472 31157 31211 1
34473 31157 31212 1
34474 31162 31213 1
34475 31162 31214 1
34476 31163 31215 1
34477 31163 31216 1
34478 31164 31217 1
34479 31164 31218 1
34480 31172 31219 1
34481 31175 31220 1
34482 31181 31221 1
34483 31181 31222 1
34484 31182 31223 1
34485 31182 31224 1
34486 31183 31225 1
34487 31183 31226 1
34488 31184 31227 1
34489 31186 31228 1
34490 31187 31229 1
34491 31187 31230 1
34492 31190 31231 1
34493 31194 31232 1
34494 31196 31233 1
34495 31199 31234 1
34496 31200 31235 1
34497 31201 31236 1
34498 31202 31237 1
34499 31202 31238 1
34500 31202 31239 1
34501 31203 31240 1
34502 31204 31241 1
34503 31205 31242 1
34504 31205 31243 1
34505 31205 31244 1
34506 31206 31245 1
34507 31207 31246 1
34508 31208 31247 1
34509 31172 31248 1
34510 31175 31249 1
34511 31204 31250 1
34512 31251 31252 am
34513 31252 31253 am
34514 31253 31254 am
34515 31254 31255 am
34516 31255 31256 am
34517 31256 31251 am
34518 31257 31258 am
34519 31258 31259 1
34520 31253 31259 1
34521 31254 31257 1
34522 31260 31261 am
34523 31261 31262 am
34524 31262 31263 am
34525 31257 31263 am
34526 31258 31260 am
34527 31264 31265 1
34528 31265 31266 1
34529 31266 31267 1
34530 31262 31267 1
34531 31263 31264 1
34532 31268 31269 am
34533 31269 31270 am
34534 31261 31270 am
34535 31267 31268 am
34536 31271 31272 am
34537 31272 31273 am
34538 31260 31273 am
34539 31270 31271 am
34540 31274 31275 1
34541 31275 31276 am
34542 31276 31277 1
34543 31268 31277 1
34544 31269 31274 1
34545 31278 31279 am
34546 31279 31280 am
34547 31280 31281 am
34548 31275 31281 am
34549 31276 31278 am
34550 31282 31283 1
34551 31283 31284 1
34552 31284 31285 1
34553 31279 31285 1
34554 31280 31282 1
34555 31286 31287 am
34556 31287 31288 am
34557 31281 31286 am
34558 31282 31288 am
34559 31289 31290 1
34560 31290 31291 am
34561 31271 31291 am
34562 31272 31289 1
34563 31292 31293 am
34564 31293 31294 am
34565 31294 31295 am
34566 31290 31295 am
34567 31291 31292 am
34568 31296 31297 am
34569 31297 31298 am
34570 31298 31299 am
34571 31294 31299 am
34572 31295 31296 am
34573 31300 31301 am
34574 31301 31302 am
34575 31293 31302 am
34576 31299 31300 am
34577 31251 31303 1
34578 31256 31304 1
34579 31273 31305 1
34580 31297 31306 1
34581 31306 31307 1
34582 31287 31308 1
34583 31278 31309 1
34584 31300 31310 1
34585 31252 31311 1
34586 31255 31312 1
34587 31259 31313 1
34588 31259 31314 1
34589 31264 31315 1
34590 31264 31316 1
34591 31265 31317 1
34592 31265 31318 1
34593 31266 31319 1
34594 31266 31320 1
34595 31274 31321 1
34596 31277 31322 1
34597 31283 31323 1
34598 31283 31324 1
34599 31284 31325 1
34600 31284 31326 1
34601 31285 31327 1
34602 31285 31328 1
34603 31286 31329 1
34604 31288 31330 1
34605 31289 31331 1
34606 31289 31332 1
34607 31292 31333 1
34608 31296 31334 1
34609 31298 31335 1
34610 31301 31336 1
34611 31302 31337 1
34612 31303 31338 1
34613 31304 31339 1
34614 31304 31340 1
34615 31304 31341 1
34616 31305 31342 1
34617 31306 31343 1
34618 31307 31344 1
34619 31307 31345 1
34620 31307 31346 1
34621 31308 31347 1
34622 31309 31348 1
34623 31310 31349 1
34624 31274 31350 1
34625 31277 31351 1
34626 31306 31352 1
34627 31353 31354 am
34628 31354 31355 am
34629 31355 31356 am
34630 31356 31357 am
34631 31357 31358 am
34632 31358 31353 am
34633 31359 31360 am
34634 31360 31361 1
34635 31355 31361 1
34636 31356 31359 1
34637 31362 31363 am
34638 31363 31364 am
34639 31364 31365 am
34640 31359 31365 am
34641 31360 31362 am
34642 31366 31367 1
34643 31367 31368 1
34644 31368 31369 1
34645 31364 31369 1
34646 31365 31366 1
34647 31370 31371 am
34648 31371 31372 am
34649 31363 31372 am
34650 31369 31370 am
34651 31373 31374 am
34652 31374 31375 am
34653 31362 31375 am
34654 31372 31373 am
34655 31376 31377 1
34656 31377 31378 am
34657 31378 31379 1
34658 31370 31379 1
34659 31371 31376 1
34660 31380 31381 am
34661 31381 31382 am
34662 31382 31383 am
34663 31377 31383 am
34664 31378 31380 am
34665 31384 31385 1
34666 31385 31386 1
34667 31386 31387 1
34668 31381 31387 1
34669 31382 31384 1
34670 31388 31389 am
34671 31389 31390 am
34672 31383 31388 am
34673 31384 31390 am
34674 31391 31392 1
34675 31392 31393 am
34676 31373 31393 am
34677 31374 31391 1
34678 31394 31395 am
34679 31395 31396 am
34680 31396 31397 am
34681 31392 31397 am
34682 31393 31394 am
34683 31398 31399 am
34684 31399 31400 am
34685 31400 31401 am
34686 31396 31401 am
34687 31397 31398 am
34688 31402 31403 am
34689 31403 31404 am
34690 31395 31404 am
34691 31401 31402 am
34692 31353 31405 1
34693 31358 31406 1
34694 31375 31407 1
34695 31399 31408 1
34696 31408 31409 1
34697 31389 31410 1
34698 31380 31411 1
34699 31402 31412 1
34700 31354 31413 1
34701 31357 31414 1
34702 31361 31415 1
34703 31361 31416 1
34704 31366 31417 1
34705 31366 31418 1
34706 31367 31419 1
34707 31367 31420 1
34708 31368 31421 1
34709 31368 31422 1
34710 31376 31423 1
34711 31379 31424 1
34712 31385 31425 1
34713 31385 31426 1
34714 31386 31427 1
34715 31386 31428 1
34716 31387 31429 1
34717 31387 31430 1
34718 31388 31431 1
34719 31390 31432 1
34720 31391 31433 1
34721 31391 31434 1
34722 31394 31435 1
34723 31398 31436 1
34724 31400 31437 1
34725 31403 31438 1
34726 31404 31439 1
34727 31405 31440 1
34728 31406 31441 1
34729 31406 31442 1
34730 31406 31443 1
34731 31407 31444 1
34732 31408 31445 1
34733 31409 31446 1
34734 31409 31447 1
34735 31409 31448 1
34736 31410 31449 1
34737 31411 31450 1
34738 31412 31451 1
34739 31376 31452 1
34740 31379 31453 1
34741 31408 31454 1
34742 31455 31456 am
34743 31456 31457 am
34744 31457 31458 am
34745 31458 31459 am
34746 31459 31460 am
34747 31460 31455 am
34748 31461 31462 am
34749 31462 31463 1
34750 31457 31463 1
34751 31458 31461 1
34752 31464 31465 am
34753 31465 31466 am
34754 31466 31467 am
34755 31461 31467 am
34756 31462 31464 am
34757 31468 31469 1
34758 31469 31470 1
34759 31470 31471 1
34760 31466 31471 1
34761 31467 31468 1
34762 31472 31473 am
34763 31473 31474 am
34764 31465 31474 am
34765 31471 31472 am
34766 31475 31476 am
34767 31476 31477 am
34768 31464 31477 am
34769 31474 31475 am
34770 31478 31479 1
34771 31479 31480 am
34772 31480 31481 1
34773 31472 31481 1
34774 31473 31478 1
34775 31482 31483 am
34776 31483 31484 am
34777 31484 31485 am
34778 31479 31485 am
34779 31480 31482 am
34780 31486 31487 1
34781 31487 31488 1
34782 31488 31489 1
34783 31483 31489 1
34784 31484 31486 1
34785 31490 31491 am
34786 31491 31492 am
34787 31485 31490 am
34788 31486 31492 am
34789 31493 31494 1
34790 31494 31495 am
34791 31475 31495 am
34792 31476 31493 1
34793 31496 31497 am
34794 31497 31498 am
34795 31498 31499 am
34796 31494 31499 am
34797 31495 31496 am
34798 31500 31501 am
34799 31501 31502 am
34800 31502 31503 am
34801 31498 31503 am
34802 31499 31500 am
34803 31504 31505 am
34804 31505 31506 am
34805 31497 31506 am
34806 31503 31504 am
34807 31455 31507 1
34808 31460 31508 1
34809 31477 31509 1
34810 31501 31510 1
34811 31510 31511 1
34812 31491 31512 1
34813 31482 31513 1
34814 31504 31514 1
34815 31456 31515 1
34816 31459 31516 1
34817 31463 31517 1
34818 31463 31518 1
34819 31468 31519 1
34820 31468 31520 1
34821 31469 31521 1
34822 31469 31522 1
34823 31470 31523 1
34824 31470 31524 1
34825 31478 31525 1
34826 31481 31526 1
34827 31487 31527 1
34828 31487 31528 1
34829 31488 31529 1
34830 31488 31530 1
34831 31489 31531 1
34832 31489 31532 1
34833 31490 31533 1
34834 31492 31534 1
34835 31493 31535 1
34836 31493 31536 1
34837 31496 31537 1
34838 31500 31538 1
34839 31502 31539 1
34840 31505 31540 1
34841 31506 31541 1
34842 31507 31542 1
34843 31508 31543 1
34844 31508 31544 1
34845 31508 31545 1
34846 31509 31546 1
34847 31510 31547 1
34848 31511 31548 1
34849 31511 31549 1
34850 31511 31550 1
34851 31512 31551 1
34852 31513 31552 1
34853 31514 31553 1
34854 31478 31554 1
34855 31481 31555 1
34856 31510 31556 1
34857 31557 31558 am
34858 31558 31559 am
34859 31559 31560 am
34860 31560 31561 am
34861 31561 31562 am
34862 31562 31557 am
34863 31563 31564 am
34864 31564 31565 1
34865 31559 31565 1
34866 31560 31563 1
34867 31566 31567 am
34868 31567 31568 am
34869 31568 31569 am
34870 31563 31569 am
34871 31564 31566 am
34872 31570 31571 1
34873 31571 31572 1
34874 31572 31573 1
34875 31568 31573 1
34876 31569 31570 1
34877 31574 31575 am
34878 31575 31576 am
34879 31567 31576 am
34880 31573 31574 am
34881 31577 31578 am
34882 31578 31579 am
34883 31566 31579 am
34884 31576 31577 am
34885 31580 31581 1
34886 31581 31582 am
34887 31582 31583 1
34888 31574 31583 1
34889 31575 31580 1
34890 31584 31585 am
34891 31585 31586 am
34892 31586 31587 am
34893 31581 31587 am
34894 31582 31584 am
34895 31588 31589 1
34896 31589 31590 1
34897 31590 31591 1
34898 31585 31591 1
34899 31586 31588 1
34900 31592 31593 am
34901 31593 31594 am
34902 31587 31592 am
34903 31588 31594 am
34904 31595 31596 1
34905 31596 31597 am
34906 31577 31597 am
34907 31578 31595 1
34908 31598 31599 am
34909 31599 31600 am
34910 31600 31601 am
34911 31596 31601 am
34912 31597 31598 am
34913 31602 31603 am
34914 31603 31604 am
34915 31604 31605 am
34916 31600 31605 am
34917 31601 31602 am
34918 31606 31607 am
34919 31607 31608 am
34920 31599 31608 am
34921 31605 31606 am
34922 31557 31609 1
34923 31562 31610 1
34924 31579 31611 1
34925 31603 31612 1
34926 31612 31613 1
34927 31593 31614 1
34928 31584 31615 1
34929 31606 31616 1
34930 31558 31617 1
34931 31561 31618 1
34932 31565 31619 1
34933 31565 31620 1
34934 31570 31621 1
34935 31570 31622 1
34936 31571 31623 1
34937 31571 31624 1
34938 31572 31625 1
34939 31572 31626 1
34940 31580 31627 1
34941 31583 31628 1
34942 31589 31629 1
34943 31589 31630 1
34944 31590 31631 1
34945 31590 31632 1
34946 31591 31633 1
34947 31591 31634 1
34948 31592 31635 1
34949 31594 31636 1
34950 31595 31637 1
34951 31595 31638 1
34952 31598 31639 1
34953 31602 31640 1
34954 31604 31641 1
34955 31607 31642 1
34956 31608 31643 1
34957 31609 31644 1
34958 31610 31645 1
34959 31610 31646 1
34960 31610 31647 1
34961 31611 31648 1
34962 31612 31649 1
34963 31613 31650 1
34964 31613 31651 1
34965 31613 31652 1
34966 31614 31653 1
34967 31615 31654 1
34968 31616 31655 1
34969 31580 31656 1
34970 31583 31657 1
34971 31612 31658 1
34972 31659 31660 am
34973 31660 31661 am
34974 31661 31662 am
34975 31662 31663 am
34976 31663 31664 am
34977 31664 31659 am
34978 31665 31666 am
34979 31666 31667 1
34980 31661 31667 1
34981 31662 31665 1
34982 31668 31669 am
34983 31669 31670 am
34984 31670 31671 am
34985 31665 31671 am
34986 31666 31668 am
34987 31672 31673 1
34988 31673 31674 1
34989 31674 31675 1
34990 31670 31675 1
34991 31671 31672 1
34992 31676 31677 am
34993 31677 31678 am
34994 31669 31678 am
34995 31675 31676 am
34996 31679 31680 am
34997 31680 31681 am
34998 31668 31681 am
34999 31678 31679 am
35000 31682 31683 1
35001 31683 31684 am
35002 31684 31685 1
35003 31676 31685 1
35004 31677 31682 1
35005 31686 31687 am
35006 31687 31688 am
35007 31688 31689 am
35008 31683 31689 am
35009 31684 31686 am
35010 31690 31691 1
35011 31691 31692 1
35012 31692 31693 1
35013 31687 31693 1
35014 31688 31690 1
35015 31694 31695 am
35016 31695 31696 am
35017 31689 31694 am
35018 31690 31696 am
35019 31697 31698 1
35020 31698 31699 am
35021 31679 31699 am
35022 31680 31697 1
35023 31700 31701 am
35024 31701 31702 am
35025 31702 31703 am
35026 31698 31703 am
35027 31699 31700 am
35028 31704 31705 am
35029 31705 31706 am
35030 31706 31707 am
35031 31702 31707 am
35032 31703 31704 am
35033 31708 31709 am
35034 31709 31710 am
35035 31701 31710 am
35036 31707 31708 am
35037 31659 31711 1
35038 31664 31712 1
35039 31681 31713 1
35040 31705 31714 1
35041 31714 31715 1
35042 31695 31716 1
35043 31686 31717 1
35044 31708 31718 1
35045 31660 31719 1
35046 31663 31720 1
35047 31667 31721 1
35048 31667 31722 1
35049 31672 31723 1
35050 31672 31724 1
35051 31673 31725 1
35052 31673 31726 1
35053 31674 31727 1
35054 31674 31728 1
35055 31682 31729 1
35056 31685 31730 1
35057 31691 31731 1
35058 31691 31732 1
35059 31692 31733 1
35060 31692 31734 1
35061 31693 31735 1
35062 31693 31736 1
35063 31694 31737 1
35064 31696 31738 1
35065 31697 31739 1
35066 31697 31740 1
35067 31700 31741 1
35068 31704 31742 1
35069 31706 31743 1
35070 31709 31744 1
35071 31710 31745 1
35072 31711 31746 1
35073 31712 31747 1
35074 31712 31748 1
35075 31712 31749 1
35076 31713 31750 1
35077 31714 31751 1
35078 31715 31752 1
35079 31715 31753 1
35080 31715 31754 1
35081 31716 31755 1
35082 31717 31756 1
35083 31718 31757 1
35084 31682 31758 1
35085 31685 31759 1
35086 31714 31760 1
35087 31761 31762 am
35088 31762 31763 am
35089 31763 31764 am
35090 31764 31765 am
35091 31765 31766 am
35092 31766 31761 am
35093 31767 31768 am
35094 31768 31769 1
35095 31763 31769 1
35096 31764 31767 1
35097 31770 31771 am
35098 31771 31772 am
35099 31772 31773 am
35100 31767 31773 am
35101 31768 31770 am
35102 31774 31775 1
35103 31775 31776 1
35104 31776 31777 1
35105 31772 31777 1
35106 31773 31774 1
35107 31778 31779 am
35108 31779 31780 am
35109 31771 31780 am
35110 31777 31778 am
35111 31781 31782 am
35112 31782 31783 am
35113 31770 31783 am
35114 31780 31781 am
35115 31784 31785 1
35116 31785 31786 am
35117 31786 31787 1
35118 31778 31787 1
35119 31779 31784 1
35120 31788 31789 am
35121 31789 31790 am
35122 31790 31791 am
35123 31785 31791 am
35124 31786 31788 am
35125 31792 31793 1
35126 31793 31794 1
35127 31794 31795 1
35128 31789 31795 1
35129 31790 31792 1
35130 31796 31797 am
35131 31797 31798 am
35132 31791 31796 am
35133 31792 31798 am
35134 31799 31800 1
35135 31800 31801 am
35136 31781 31801 am
35137 31782 31799 1
35138 31802 31803 am
35139 31803 31804 am
35140 31804 31805 am
35141 31800 31805 am
35142 31801 31802 am
35143 31806 31807 am
35144 31807 31808 am
35145 31808 31809 am
35146 31804 31809 am
35147 31805 31806 am
35148 31810 31811 am
35149 31811 31812 am
35150 31803 31812 am
35151 31809 31810 am
35152 31761 31813 1
35153 31766 31814 1
35154 31783 31815 1
35155 31807 31816 1
35156 31816 31817 1
35157 31797 31818 1
35158 31788 31819 1
35159 31810 31820 1
35160 31762 31821 1
35161 31765 31822 1
35162 31769 31823 1
35163 31769 31824 1
35164 31774 31825 1
35165 31774 31826 1
35166 31775 31827 1
35167 31775 31828 1
35168 31776 31829 1
35169 31776 31830 1
35170 31784 31831 1
35171 31787 31832 1
35172 31793 31833 1
35173 31793 31834 1
35174 31794 31835 1
35175 31794 31836 1
35176 31795 31837 1
35177 31795 31838 1
35178 31796 31839 1
35179 31798 31840 1
35180 31799 31841 1
35181 31799 31842 1
35182 31802 31843 1
35183 31806 31844 1
35184 31808 31845 1
35185 31811 31846 1
35186 31812 31847 1
35187 31813 31848 1
35188 31814 31849 1
35189 31814 31850 1
35190 31814 31851 1
35191 31815 31852 1
35192 31816 31853 1
35193 31817 31854 1
35194 31817 31855 1
35195 31817 31856 1
35196 31818 31857 1
35197 31819 31858 1
35198 31820 31859 1
35199 31784 31860 1
35200 31787 31861 1
35201 31816 31862 1
35202 31863 31864 am
35203 31864 31865 am
35204 31865 31866 am
35205 31866 31867 am
35206 31867 31868 am
35207 31868 31863 am
35208 31869 31870 am
35209 31870 31871 1
35210 31865 31871 1
35211 31866 31869 1
35212 31872 31873 am
35213 31873 31874 am
35214 31874 31875 am
35215 31869 31875 am
35216 31870 31872 am
35217 31876 31877 1
35218 31877 31878 1
35219 31878 31879 1
35220 31874 31879 1
35221 31875 31876 1
35222 31880 31881 am
35223 31881 31882 am
35224 31873 31882 am
35225 31879 31880 am
35226 31883 31884 am
35227 31884 31885 am
35228 31872 31885 am
35229 31882 31883 am
35230 31886 31887 1
35231 31887 31888 am
35232 31888 31889 1
35233 31880 31889 1
35234 31881 31886 1
35235 31890 31891 am
35236 31891 31892 am
35237 31892 31893 am
35238 31887 31893 am
35239 31888 31890 am
35240 31894 31895 1
35241 31895 31896 1
35242 31896 31897 1
35243 31891 31897 1
35244 31892 31894 1
35245 31898 31899 am
35246 31899 31900 am
35247 31893 31898 am
35248 31894 31900 am
35249 31901 31902 1
35250 31902 31903 am
35251 31883 31903 am
35252 31884 31901 1
35253 31904 31905 am
35254 31905 31906 am
35255 31906 31907 am
35256 31902 31907 am
35257 31903 31904 am
35258 31908 31909 am
35259 31909 31910 am
35260 31910 31911 am
35261 31906 31911 am
35262 31907 31908 am
35263 31912 31913 am
35264 31913 31914 am
35265 31905 31914 am
35266 31911 31912 am
35267 31863 31915 1
35268 31868 31916 1
35269 31885 31917 1
35270 31909 31918 1
35271 31918 31919 1
35272 31899 31920 1
35273 31890 31921 1
35274 31912 31922 1
35275 31864 31923 1
35276 31867 31924 1
35277 31871 31925 1
35278 31871 31926 1
35279 31876 31927 1
35280 31876 31928 1
35281 31877 31929 1
35282 31877 31930 1
35283 31878 31931 1
35284 31878 31932 1
35285 31886 31933 1
35286 31889 31934 1
35287 31895 31935 1
35288 31895 31936 1
35289 31896 31937 1
35290 31896 31938 1
35291 31897 31939 1
35292 31897 31940 1
35293 31898 31941 1
35294 31900 31942 1
35295 31901 31943 1
35296 31901 31944 1
35297 31904 31945 1
35298 31908 31946 1
35299 31910 31947 1
35300 31913 31948 1
35301 31914 31949 1
35302 31915 31950 1
35303 31916 31951 1
35304 31916 31952 1
35305 31916 31953 1
35306 31917 31954 1
35307 31918 31955 1
35308 31919 31956 1
35309 31919 31957 1
35310 31919 31958 1
35311 31920 31959 1
35312 31921 31960 1
35313 31922 31961 1
35314 31886 31962 1
35315 31889 31963 1
35316 31918 31964 1
35317 31965 31966 am
35318 31966 31967 am
35319 31967 31968 am
35320 31968 31969 am
35321 31969 31970 am
35322 31970 31965 am
35323 31971 31972 am
35324 31972 31973 1
35325 31967 31973 1
35326 31968 31971 1
35327 31974 31975 am
35328 31975 31976 am
35329 31976 31977 am
35330 31971 31977 am
35331 31972 31974 am
35332 31978 31979 1
35333 31979 31980 1
35334 31980 31981 1
35335 31976 31981 1
35336 31977 31978 1
35337 31982 31983 am
35338 31983 31984 am
35339 31975 31984 am
35340 31981 31982 am
35341 31985 31986 am
35342 31986 31987 am
35343 31974 31987 am
35344 31984 31985 am
35345 31988 31989 1
35346 31989 31990 am
35347 31990 31991 1
35348 31982 31991 1
35349 31983 31988 1
35350 31992 31993 am
35351 31993 31994 am
35352 31994 31995 am
35353 31989 31995 am
35354 31990 31992 am
35355 31996 31997 1
35356 31997 31998 1
35357 31998 31999 1
35358 31993 31999 1
35359 31994 31996 1
35360 32000 32001 am
35361 32001 32002 am
35362 31995 32000 am
35363 31996 32002 am
35364 32003 32004 1
35365 32004 32005 am
35366 31985 32005 am
35367 31986 32003 1
35368 32006 32007 am
35369 32007 32008 am
35370 32008 32009 am
35371 32004 32009 am
35372 32005 32006 am
35373 32010 32011 am
35374 32011 32012 am
35375 32012 32013 am
35376 32008 32013 am
35377 32009 32010 am
35378 32014 32015 am
35379 32015 32016 am
35380 32007 32016 am
35381 32013 32014 am
35382 31965 32017 1
35383 31970 32018 1
35384 31987 32019 1
35385 32011 32020 1
35386 32020 32021 1
35387 32001 32022 1
35388 31992 32023 1
35389 32014 32024 1
35390 31966 32025 1
35391 31969 32026 1
35392 31973 32027 1
35393 31973 32028 1
35394 31978 32029 1
35395 31978 32030 1
35396 31979 32031 1
35397 31979 32032 1
35398 31980 32033 1
35399 31980 32034 1
35400 31988 32035 1
35401 31991 32036 1
35402 31997 32037 1
35403 31997 32038 1
35404 31998 32039 1
35405 31998 32040 1
35406 31999 32041 1
35407 31999 32042 1
35408 32000 32043 1
35409 32002 32044 1
35410 32003 32045 1
35411 32003 32046 1
35412 32006 32047 1
35413 32010 32048 1
35414 32012 32049 1
35415 32015 32050 1
35416 32016 32051 1
35417 32017 32052 1
35418 32018 32053 1
35419 32018 32054 1
35420 32018 32055 1
35421 32019 32056 1
35422 32020 32057 1
35423 32021 32058 1
35424 32021 32059 1
35425 32021 32060 1
35426 32022 32061 1
35427 32023 32062 1
35428 32024 32063 1
35429 31988 32064 1
35430 31991 32065 1
35431 32020 32066 1
35432 32067 32068 am
35433 32068 32069 am
35434 32069 32070 am
35435 32070 32071 am
35436 32071 32072 am
35437 32072 32067 am
35438 32073 32074 am
35439 32074 32075 1
35440 32069 32075 1
35441 32070 32073 1
35442 32076 32077 am
35443 32077 32078 am
35444 32078 32079 am
35445 32073 32079 am
35446 32074 32076 am
35447 32080 32081 1
35448 32081 32082 1
35449 32082 32083 1
35450 32078 32083 1
35451 32079 32080 1
35452 32084 32085 am
35453 32085 32086 am
35454 32077 32086 am
35455 32083 32084 am
35456 32087 32088 am
35457 32088 32089 am
35458 32076 32089 am
35459 32086 32087 am
35460 32090 32091 1
35461 32091 32092 am
35462 32092 32093 1
35463 32084 32093 1
35464 32085 32090 1
35465 32094 32095 am
35466 32095 32096 am
35467 32096 32097 am
35468 32091 32097 am
35469 32092 32094 am
35470 32098 32099 1
35471 32099 32100 1
35472 32100 32101 1
35473 32095 32101 1
35474 32096 32098 1
35475 32102 32103 am
35476 32103 32104 am
35477 32097 32102 am
35478 32098 32104 am
35479 32105 32106 1
35480 32106 32107 am
35481 32087 32107 am
35482 32088 32105 1
35483 32108 32109 am
35484 32109 32110 am
35485 32110 32111 am
35486 32106 32111 am
35487 32107 32108 am
35488 32112 32113 am
35489 32113 32114 am
35490 32114 32115 am
35491 32110 32115 am
35492 32111 32112 am
35493 32116 32117 am
35494 32117 32118 am
35495 32109 32118 am
35496 32115 32116 am
35497 32067 32119 1
35498 32072 32120 1
35499 32089 32121 1
35500 32113 32122 1
35501 32122 32123 1
35502 32103 32124 1
35503 32094 32125 1
35504 32116 32126 1
35505 32068 32127 1
35506 32071 32128 1
35507 32075 32129 1
35508 32075 32130 1
35509 32080 32131 1
35510 32080 32132 1
35511 32081 32133 1
35512 32081 32134 1
35513 32082 32135 1
35514 32082 32136 1
35515 32090 32137 1
35516 32093 32138 1
35517 32099 32139 1
35518 32099 32140 1
35519 32100 32141 1
35520 32100 32142 1
35521 32101 32143 1
35522 32101 32144 1
35523 32102 32145 1
35524 32104 32146 1
35525 32105 32147 1
35526 32105 32148 1
35527 32108 32149 1
35528 32112 32150 1
35529 32114 32151 1
35530 32117 32152 1
35531 32118 32153 1
35532 32119 32154 1
35533 32120 32155 1
35534 32120 32156 1
35535 32120 32157 1
35536 32121 32158 1
35537 32122 32159 1
35538 32123 32160 1
35539 32123 32161 1
35540 32123 32162 1
35541 32124 32163 1
35542 32125 32164 1
35543 32126 32165 1
35544 32090 32166 1
35545 32093 32167 1
35546 32122 32168 1
35547 32169 32170 am
35548 32170 32171 am
35549 32171 32172 am
35550 32172 32173 am
35551 32173 32174 am
35552 32174 32169 am
35553 32175 32176 am
35554 32176 32177 1
35555 32171 32177 1
35556 32172 32175 1
35557 32178 32179 am
35558 32179 32180 am
35559 32180 32181 am
35560 32175 32181 am
35561 32176 32178 am
35562 32182 32183 1
35563 32183 32184 1
35564 32184 32185 1
35565 32180 32185 1
35566 32181 32182 1
35567 32186 32187 am
35568 32187 32188 am
35569 32179 32188 am
35570 32185 32186 am
35571 32189 32190 am
35572 32190 32191 am
35573 32178 32191 am
35574 32188 32189 am
35575 32192 32193 1
35576 32193 32194 am
35577 32194 32195 1
35578 32186 32195 1
35579 32187 32192 1
35580 32196 32197 am
35581 32197 32198 am
35582 32198 32199 am
35583 32193 32199 am
35584 32194 32196 am
35585 32200 32201 1
35586 32201 32202 1
35587 32202 32203 1
35588 32197 32203 1
35589 32198 32200 1
35590 32204 32205 am
35591 32205 32206 am
35592 32199 32204 am
35593 32200 32206 am
35594 32207 32208 1
35595 32208 32209 am
35596 32189 32209 am
35597 32190 32207 1
35598 32210 32211 am
35599 32211 32212 am
35600 32212 32213 am
35601 32208 32213 am
35602 32209 32210 am
35603 32214 32215 am
35604 32215 32216 am
35605 32216 32217 am
35606 32212 32217 am
35607 32213 32214 am
35608 32218 32219 am
35609 32219 32220 am
35610 32211 32220 am
35611 32217 32218 am
35612 32169 32221 1
35613 32174 32222 1
35614 32191 32223 1
35615 32215 32224 1
35616 32224 32225 1
35617 32205 32226 1
35618 32196 32227 1
35619 32218 32228 1
35620 32170 32229 1
35621 32173 32230 1
35622 32177 32231 1
35623 32177 32232 1
35624 32182 32233 1
35625 32182 32234 1
35626 32183 32235 1
35627 32183 32236 1
35628 32184 32237 1
35629 32184 32238 1
35630 32192 32239 1
35631 32195 32240 1
35632 32201 32241 1
35633 32201 32242 1
35634 32202 32243 1
35635 32202 32244 1
35636 32203 32245 1
35637 32203 32246 1
35638 32204 32247 1
35639 32206 32248 1
35640 32207 32249 1
35641 32207 32250 1
35642 32210 32251 1
35643 32214 32252 1
35644 32216 32253 1
35645 32219 32254 1
35646 32220 32255 1
35647 32221 32256 1
35648 32222 32257 1
35649 32222 32258 1
35650 32222 32259 1
35651 32223 32260 1
35652 32224 32261 1
35653 32225 32262 1
35654 32225 32263 1
35655 32225 32264 1
35656 32226 32265 1
35657 32227 32266 1
35658 32228 32267 1
35659 32192 32268 1
35660 32195 32269 1
35661 32224 32270 1
35662 32271 32272 am
35663 32272 32273 am
35664 32273 32274 am
35665 32274 32275 am
35666 32275 32276 am
35667 32276 32271 am
35668 32277 32278 am
35669 32278 32279 1
35670 32273 32279 1
35671 32274 32277 1
35672 32280 32281 am
35673 32281 32282 am
35674 32282 32283 am
35675 32277 32283 am
35676 32278 32280 am
35677 32284 32285 1
35678 32285 32286 1
35679 32286 32287 1
35680 32282 32287 1
35681 32283 32284 1
35682 32288 32289 am
35683 32289 32290 am
35684 32281 32290 am
35685 32287 32288 am
35686 32291 32292 am
35687 32292 32293 am
35688 32280 32293 am
35689 32290 32291 am
35690 32294 32295 1
35691 32295 32296 am
35692 32296 32297 1
35693 32288 32297 1
35694 32289 32294 1
35695 32298 32299 am
35696 32299 32300 am
35697 32300 32301 am
35698 32295 32301 am
35699 32296 32298 am
35700 32302 32303 1
35701 32303 32304 1
35702 32304 32305 1
35703 32299 32305 1
35704 32300 32302 1
35705 32306 32307 am
35706 32307 32308 am
35707 32301 32306 am
35708 32302 32308 am
35709 32309 32310 1
35710 32310 32311 am
35711 32291 32311 am
35712 32292 32309 1
35713 32312 32313 am
35714 32313 32314 am
35715 32314 32315 am
35716 32310 32315 am
35717 32311 32312 am
35718 32316 32317 am
35719 32317 32318 am
35720 32318 32319 am
35721 32314 32319 am
35722 32315 32316 am
35723 32320 32321 am
35724 32321 32322 am
35725 32313 32322 am
35726 32319 32320 am
35727 32271 32323 1
35728 32276 32324 1
35729 32293 32325 1
35730 32317 32326 1
35731 32326 32327 1
35732 32307 32328 1
35733 32298 32329 1
35734 32320 32330 1
35735 32272 32331 1
35736 32275 32332 1
35737 32279 32333 1
35738 32279 32334 1
35739 32284 32335 1
35740 32284 32336 1
35741 32285 32337 1
35742 32285 32338 1
35743 32286 32339 1
35744 32286 32340 1
35745 32294 32341 1
35746 32297 32342 1
35747 32303 32343 1
35748 32303 32344 1
35749 32304 32345 1
35750 32304 32346 1
35751 32305 32347 1
35752 32305 32348 1
35753 32306 32349 1
35754 32308 32350 1
35755 32309 32351 1
35756 32309 32352 1
35757 32312 32353 1
35758 32316 32354 1
35759 32318 32355 1
35760 32321 32356 1
35761 32322 32357 1
35762 32323 32358 1
35763 32324 32359 1
35764 32324 32360 1
35765 32324 32361 1
35766 32325 32362 1
35767 32326 32363 1
35768 32327 32364 1
35769 32327 32365 1
35770 32327 32366 1
35771 32328 32367 1
35772 32329 32368 1
35773 32330 32369 1
35774 32294 32370 1
35775 32297 32371 1
35776 32326 32372 1
35777 32373 32374 am
35778 32374 32375 am
35779 32375 32376 am
35780 32376 32377 am
35781 32377 32378 am
35782 32378 32373 am
35783 32379 32380 am
35784 32380 32381 1
35785 32375 32381 1
35786 32376 32379 1
35787 32382 32383 am
35788 32383 32384 am
35789 32384 32385 am
35790 32379 32385 am
35791 32380 32382 am
35792 32386 32387 1
35793 32387 32388 1
35794 32388 32389 1
35795 32384 32389 1
35796 32385 32386 1
35797 32390 32391 am
35798 32391 32392 am
35799 32383 32392 am
35800 32389 32390 am
35801 32393 32394 am
35802 32394 32395 am
35803 32382 32395 am
35804 32392 32393 am
35805 32396 32397 1
35806 32397 32398 am
35807 32398 32399 1
35808 32390 32399 1
35809 32391 32396 1
35810 32400 32401 am
35811 32401 32402 am
35812 32402 32403 am
35813 32397 32403 am
35814 32398 32400 am
35815 32404 32405 1
35816 32405 32406 1
35817 32406 32407 1
35818 32401 32407 1
35819 32402 32404 1
35820 32408 32409 am
35821 32409 32410 am
35822 32403 32408 am
35823 32404 32410 am
35824 32411 32412 1
35825 32412 32413 am
35826 32393 32413 am
35827 32394 32411 1
35828 32414 32415 am
35829 32415 32416 am
35830 32416 32417 am
35831 32412 32417 am
35832 32413 32414 am
35833 32418 32419 am
35834 32419 32420 am
35835 32420 32421 am
35836 32416 32421 am
35837 32417 32418 am
35838 32422 32423 am
35839 32423 32424 am
35840 32415 32424 am
35841 32421 32422 am
35842 32373 32425 1
35843 32378 32426 1
35844 32395 32427 1
35845 32419 32428 1
35846 32428 32429 1
35847 32409 32430 1
35848 32400 32431 1
35849 32422 32432 1
35850 32374 32433 1
35851 32377 32434 1
35852 32381 32435 1
35853 32381 32436 1
35854 32386 32437 1
35855 32386 32438 1
35856 32387 32439 1
35857 32387 32440 1
35858 32388 32441 1
35859 32388 32442 1
35860 32396 32443 1
35861 32399 32444 1
35862 32405 32445 1
35863 32405 32446 1
35864 32406 32447 1
35865 32406 32448 1
35866 32407 32449 1
35867 32407 32450 1
35868 32408 32451 1
35869 32410 32452 1
35870 32411 32453 1
35871 32411 32454 1
35872 32414 32455 1
35873 32418 32456 1
35874 32420 32457 1
35875 32423 32458 1
35876 32424 32459 1
35877 32425 32460 1
35878 32426 32461 1
35879 32426 32462 1
35880 32426 32463 1
35881 32427 32464 1
35882 32428 32465 1
35883 32429 32466 1
35884 32429 32467 1
35885 32429 32468 1
35886 32430 32469 1
35887 32431 32470 1
35888 32432 32471 1
35889 32396 32472 1
35890 32399 32473 1
35891 32428 32474 1
35892 32475 32476 am
35893 32476 32477 am
35894 32477 32478 am
35895 32478 32479 am
35896 32479 32480 am
35897 32480 32475 am
35898 32481 32482 am
35899 32482 32483 1
35900 32477 32483 1
35901 32478 32481 1
35902 32484 32485 am
35903 32485 32486 am
35904 32486 32487 am
35905 32481 32487 am
35906 32482 32484 am
35907 32488 32489 1
35908 32489 32490 1
35909 32490 32491 1
35910 32486 32491 1
35911 32487 32488 1
35912 32492 32493 am
35913 32493 32494 am
35914 32485 32494 am
35915 32491 32492 am
35916 32495 32496 am
35917 32496 32497 am
35918 32484 32497 am
35919 32494 32495 am
35920 32498 32499 1
35921 32499 32500 am
35922 32500 32501 1
35923 32492 32501 1
35924 32493 32498 1
35925 32502 32503 am
35926 32503 32504 am
35927 32504 32505 am
35928 32499 32505 am
35929 32500 32502 am
35930 32506 32507 1
35931 32507 32508 1
35932 32508 32509 1
35933 32503 32509 1
35934 32504 32506 1
35935 32510 32511 am
35936 32511 32512 am
35937 32505 32510 am
35938 32506 32512 am
35939 32513 32514 1
35940 32514 32515 am
35941 32495 32515 am
35942 32496 32513 1
35943 32516 32517 am
35944 32517 32518 am
35945 32518 32519 am
35946 32514 32519 am
35947 32515 32516 am
35948 32520 32521 am
35949 32521 32522 am
35950 32522 32523 am
35951 32518 32523 am
35952 32519 32520 am
35953 32524 32525 am
35954 32525 32526 am
35955 32517 32526 am
35956 32523 32524 am
35957 32475 32527 1
35958 32480 32528 1
35959 32497 32529 1
35960 32521 32530 1
35961 32530 32531 1
35962 32511 32532 1
35963 32502 32533 1
35964 32524 32534 1
35965 32476 32535 1
35966 32479 32536 1
35967 32483 32537 1
35968 32483 32538 1
35969 32488 32539 1
35970 32488 32540 1
35971 32489 32541 1
35972 32489 32542 1
35973 32490 32543 1
35974 32490 32544 1
35975 32498 32545 1
35976 32501 32546 1
35977 32507 32547 1
35978 32507 32548 1
35979 32508 32549 1
35980 32508 32550 1
35981 32509 32551 1
35982 32509 32552 1
35983 32510 32553 1
35984 32512 32554 1
35985 32513 32555 1
35986 32513 32556 1
35987 32516 32557 1
35988 32520 32558 1
35989 32522 32559 1
35990 32525 32560 1
35991 32526 32561 1
35992 32527 32562 1
35993 32528 32563 1
35994 32528 32564 1
35995 32528 32565 1
35996 32529 32566 1
35997 32530 32567 1
35998 32531 32568 1
35999 32531 32569 1
36000 32531 32570 1
36001 32532 32571 1
36002 32533 32572 1
36003 32534 32573 1
36004 32498 32574 1
36005 32501 32575 1
36006 32530 32576 1
36007 32577 32578 am
36008 32578 32579 am
36009 32579 32580 am
36010 32580 32581 am
36011 32581 32582 am
36012 32582 32577 am
36013 32583 32584 am
36014 32584 32585 1
36015 32579 32585 1
36016 32580 32583 1
36017 32586 32587 am
36018 32587 32588 am
36019 32588 32589 am
36020 32583 32589 am
36021 32584 32586 am
36022 32590 32591 1
36023 32591 32592 1
36024 32592 32593 1
36025 32588 32593 1
36026 32589 32590 1
36027 32594 32595 am
36028 32595 32596 am
36029 32587 32596 am
36030 32593 32594 am
36031 32597 32598 am
36032 32598 32599 am
36033 32586 32599 am
36034 32596 32597 am
36035 32600 32601 1
36036 32601 32602 am
36037 32602 32603 1
36038 32594 32603 1
36039 32595 32600 1
36040 32604 32605 am
36041 32605 32606 am
36042 32606 32607 am
36043 32601 32607 am
36044 32602 32604 am
36045 32608 32609 1
36046 32609 32610 1
36047 32610 32611 1
36048 32605 32611 1
36049 32606 32608 1
36050 32612 32613 am
36051 32613 32614 am
36052 32607 32612 am
36053 32608 32614 am
36054 32615 32616 1
36055 32616 32617 am
36056 32597 32617 am
36057 32598 32615 1
36058 32618 32619 am
36059 32619 32620 am
36060 32620 32621 am
36061 32616 32621 am
36062 32617 32618 am
36063 32622 32623 am
36064 32623 32624 am
36065 32624 32625 am
36066 32620 32625 am
36067 32621 32622 am
36068 32626 32627 am
36069 32627 32628 am
36070 32619 32628 am
36071 32625 32626 am
36072 32577 32629 1
36073 32582 32630 1
36074 32599 32631 1
36075 32623 32632 1
36076 32632 32633 1
36077 32613 32634 1
36078 32604 32635 1
36079 32626 32636 1
36080 32578 32637 1
36081 32581 32638 1
36082 32585 32639 1
36083 32585 32640 1
36084 32590 32641 1
36085 32590 32642 1
36086 32591 32643 1
36087 32591 32644 1
36088 32592 32645 1
36089 32592 32646 1
36090 32600 32647 1
36091 32603 32648 1
36092 32609 32649 1
36093 32609 32650 1
36094 32610 32651 1
36095 32610 32652 1
36096 32611 32653 1
36097 32611 32654 1
36098 32612 32655 1
36099 32614 32656 1
36100 32615 32657 1
36101 32615 32658 1
36102 32618 32659 1
36103 32622 32660 1
36104 32624 32661 1
36105 32627 32662 1
36106 32628 32663 1
36107 32629 32664 1
36108 32630 32665 1
36109 32630 32666 1
36110 32630 32667 1
36111 32631 32668 1
36112 32632 32669 1
36113 32633 32670 1
36114 32633 32671 1
36115 32633 32672 1
36116 32634 32673 1
36117 32635 32674 1
36118 32636 32675 1
36119 32600 32676 1
36120 32603 32677 1
36121 32632 32678 1
36122 32679 32680 am
36123 32680 32681 am
36124 32681 32682 am
36125 32682 32683 am
36126 32683 32684 am
36127 32684 32679 am
36128 32685 32686 am
36129 32686 32687 1
36130 32681 32687 1
36131 32682 32685 1
36132 32688 32689 am
36133 32689 32690 am
36134 32690 32691 am
36135 32685 32691 am
36136 32686 32688 am
36137 32692 32693 1
36138 32693 32694 1
36139 32694 32695 1
36140 32690 32695 1
36141 32691 32692 1
36142 32696 32697 am
36143 32697 32698 am
36144 32689 32698 am
36145 32695 32696 am
36146 32699 32700 am
36147 32700 32701 am
36148 32688 32701 am
36149 32698 32699 am
36150 32702 32703 1
36151 32703 32704 am
36152 32704 32705 1
36153 32696 32705 1
36154 32697 32702 1
36155 32706 32707 am
36156 32707 32708 am
36157 32708 32709 am
36158 32703 32709 am
36159 32704 32706 am
36160 32710 32711 1
36161 32711 32712 1
36162 32712 32713 1
36163 32707 32713 1
36164 32708 32710 1
36165 32714 32715 am
36166 32715 32716 am
36167 32709 32714 am
36168 32710 32716 am
36169 32717 32718 1
36170 32718 32719 am
36171 32699 32719 am
36172 32700 32717 1
36173 32720 32721 am
36174 32721 32722 am
36175 32722 32723 am
36176 32718 32723 am
36177 32719 32720 am
36178 32724 32725 am
36179 32725 32726 am
36180 32726 32727 am
36181 32722 32727 am
36182 32723 32724 am
36183 32728 32729 am
36184 32729 32730 am
36185 32721 32730 am
36186 32727 32728 am
36187 32679 32731 1
36188 32684 32732 1
36189 32701 32733 1
36190 32725 32734 1
36191 32734 32735 1
36192 32715 32736 1
36193 32706 32737 1
36194 32728 32738 1
36195 32680 32739 1
36196 32683 32740 1
36197 32687 32741 1
36198 32687 32742 1
36199 32692 32743 1
36200 32692 32744 1
36201 32693 32745 1
36202 32693 32746 1
36203 32694 32747 1
36204 32694 32748 1
36205 32702 32749 1
36206 32705 32750 1
36207 32711 32751 1
36208 32711 32752 1
36209 32712 32753 1
36210 32712 32754 1
36211 32713 32755 1
36212 32713 32756 1
36213 32714 32757 1
36214 32716 32758 1
36215 32717 32759 1
36216 32717 32760 1
36217 32720 32761 1
36218 32724 32762 1
36219 32726 32763 1
36220 32729 32764 1
36221 32730 32765 1
36222 32731 32766 1
36223 32732 32767 1
36224 32732 32768 1
36225 32732 32769 1
36226 32733 32770 1
36227 32734 32771 1
36228 32735 32772 1
36229 32735 32773 1
36230 32735 32774 1
36231 32736 32775 1
36232 32737 32776 1
36233 32738 32777 1
36234 32702 32778 1
36235 32705 32779 1
36236 32734 32780 1
36237 32781 32782 am
36238 32782 32783 am
36239 32783 32784 am
36240 32784 32785 am
36241 32785 32786 am
36242 32786 32781 am
36243 32787 32788 am
36244 32788 32789 1
36245 32783 32789 1
36246 32784 32787 1
36247 32790 32791 am
36248 32791 32792 am
36249 32792 32793 am
36250 32787 32793 am
36251 32788 32790 am
36252 32794 32795 1
36253 32795 32796 1
36254 32796 32797 1
36255 32792 32797 1
36256 32793 32794 1
36257 32798 32799 am
36258 32799 32800 am
36259 32791 32800 am
36260 32797 32798 am
36261 32801 32802 am
36262 32802 32803 am
36263 32790 32803 am
36264 32800 32801 am
36265 32804 32805 1
36266 32805 32806 am
36267 32806 32807 1
36268 32798 32807 1
36269 32799 32804 1
36270 32808 32809 am
36271 32809 32810 am
36272 32810 32811 am
36273 32805 32811 am
36274 32806 32808 am
36275 32812 32813 1
36276 32813 32814 1
36277 32814 32815 1
36278 32809 32815 1
36279 32810 32812 1
36280 32816 32817 am
36281 32817 32818 am
36282 32811 32816 am
36283 32812 32818 am
36284 32819 32820 1
36285 32820 32821 am
36286 32801 32821 am
36287 32802 32819 1
36288 32822 32823 am
36289 32823 32824 am
36290 32824 32825 am
36291 32820 32825 am
36292 32821 32822 am
36293 32826 32827 am
36294 32827 32828 am
36295 32828 32829 am
36296 32824 32829 am
36297 32825 32826 am
36298 32830 32831 am
36299 32831 32832 am
36300 32823 32832 am
36301 32829 32830 am
36302 32781 32833 1
36303 32786 32834 1
36304 32803 32835 1
36305 32827 32836 1
36306 32836 32837 1
36307 32817 32838 1
36308 32808 32839 1
36309 32830 32840 1
36310 32782 32841 1
36311 32785 32842 1
36312 32789 32843 1
36313 32789 32844 1
36314 32794 32845 1
36315 32794 32846 1
36316 32795 32847 1
36317 32795 32848 1
36318 32796 32849 1
36319 32796 32850 1
36320 32804 32851 1
36321 32807 32852 1
36322 32813 32853 1
36323 32813 32854 1
36324 32814 32855 1
36325 32814 32856 1
36326 32815 32857 1
36327 32815 32858 1
36328 32816 32859 1
36329 32818 32860 1
36330 32819 32861 1
36331 32819 32862 1
36332 32822 32863 1
36333 32826 32864 1
36334 32828 32865 1
36335 32831 32866 1
36336 32832 32867 1
36337 32833 32868 1
36338 32834 32869 1
36339 32834 32870 1
36340 32834 32871 1
36341 32835 32872 1
36342 32836 32873 1
36343 32837 32874 1
36344 32837 32875 1
36345 32837 32876 1
36346 32838 32877 1
36347 32839 32878 1
36348 32840 32879 1
36349 32804 32880 1
36350 32807 32881 1
36351 32836 32882 1
36352 32883 32884 am
36353 32884 32885 am
36354 32885 32886 am
36355 32886 32887 am
36356 32887 32888 am
36357 32888 32883 am
36358 32889 32890 am
36359 32890 32891 1
36360 32885 32891 1
36361 32886 32889 1
36362 32892 32893 am
36363 32893 32894 am
36364 32894 32895 am
36365 32889 32895 am
36366 32890 32892 am
36367 32896 32897 1
36368 32897 32898 1
36369 32898 32899 1
36370 32894 32899 1
36371 32895 32896 1
36372 32900 32901 am
36373 32901 32902 am
36374 32893 32902 am
36375 32899 32900 am
36376 32903 32904 am
36377 32904 32905 am
36378 32892 32905 am
36379 32902 32903 am
36380 32906 32907 1
36381 32907 32908 am
36382 32908 32909 1
36383 32900 32909 1
36384 32901 32906 1
36385 32910 32911 am
36386 32911 32912 am
36387 32912 32913 am
36388 32907 32913 am
36389 32908 32910 am
36390 32914 32915 1
36391 32915 32916 1
36392 32916 32917 1
36393 32911 32917 1
36394 32912 32914 1
36395 32918 32919 am
36396 32919 32920 am
36397 32913 32918 am
36398 32914 32920 am
36399 32921 32922 1
36400 32922 32923 am
36401 32903 32923 am
36402 32904 32921 1
36403 32924 32925 am
36404 32925 32926 am
36405 32926 32927 am
36406 32922 32927 am
36407 32923 32924 am
36408 32928 32929 am
36409 32929 32930 am
36410 32930 32931 am
36411 32926 32931 am
36412 32927 32928 am
36413 32932 32933 am
36414 32933 32934 am
36415 32925 32934 am
36416 32931 32932 am
36417 32883 32935 1
36418 32888 32936 1
36419 32905 32937 1
36420 32929 32938 1
36421 32938 32939 1
36422 32919 32940 1
36423 32910 32941 1
36424 32932 32942 1
36425 32884 32943 1
36426 32887 32944 1
36427 32891 32945 1
36428 32891 32946 1
36429 32896 32947 1
36430 32896 32948 1
36431 32897 32949 1
36432 32897 32950 1
36433 32898 32951 1
36434 32898 32952 1
36435 32906 32953 1
36436 32909 32954 1
36437 32915 32955 1
36438 32915 32956 1
36439 32916 32957 1
36440 32916 32958 1
36441 32917 32959 1
36442 32917 32960 1
36443 32918 32961 1
36444 32920 32962 1
36445 32921 32963 1
36446 32921 32964 1
36447 32924 32965 1
36448 32928 32966 1
36449 32930 32967 1
36450 32933 32968 1
36451 32934 32969 1
36452 32935 32970 1
36453 32936 32971 1
36454 32936 32972 1
36455 32936 32973 1
36456 32937 32974 1
36457 32938 32975 1
36458 32939 32976 1
36459 32939 32977 1
36460 32939 32978 1
36461 32940 32979 1
36462 32941 32980 1
36463 32942 32981 1
36464 32906 32982 1
36465 32909 32983 1
36466 32938 32984 1
36467 32985 32986 am
36468 32986 32987 am
36469 32987 32988 am
36470 32988 32989 am
36471 32989 32990 am
36472 32990 32985 am
36473 32991 32992 am
36474 32992 32993 1
36475 32987 32993 1
36476 32988 32991 1
36477 32994 32995 am
36478 32995 32996 am
36479 32996 32997 am
36480 32991 32997 am
36481 32992 32994 am
36482 32998 32999 1
36483 32999 33000 1
36484 33000 33001 1
36485 32996 33001 1
36486 32997 32998 1
36487 33002 33003 am
36488 33003 33004 am
36489 32995 33004 am
36490 33001 33002 am
36491 33005 33006 am
36492 33006 33007 am
36493 32994 33007 am
36494 33004 33005 am
36495 33008 33009 1
36496 33009 33010 am
36497 33010 33011 1
36498 33002 33011 1
36499 33003 33008 1
36500 33012 33013 am
36501 33013 33014 am
36502 33014 33015 am
36503 33009 33015 am
36504 33010 33012 am
36505 33016 33017 1
36506 33017 33018 1
36507 33018 33019 1
36508 33013 33019 1
36509 33014 33016 1
36510 33020 33021 am
36511 33021 33022 am
36512 33015 33020 am
36513 33016 33022 am
36514 33023 33024 1
36515 33024 33025 am
36516 33005 33025 am
36517 33006 33023 1
36518 33026 33027 am
36519 33027 33028 am
36520 33028 33029 am
36521 33024 33029 am
36522 33025 33026 am
36523 33030 33031 am
36524 33031 33032 am
36525 33032 33033 am
36526 33028 33033 am
36527 33029 33030 am
36528 33034 33035 am
36529 33035 33036 am
36530 33027 33036 am
36531 33033 33034 am
36532 32985 33037 1
36533 32990 33038 1
36534 33007 33039 1
36535 33031 33040 1
36536 33040 33041 1
36537 33021 33042 1
36538 33012 33043 1
36539 33034 33044 1
36540 32986 33045 1
36541 32989 33046 1
36542 32993 33047 1
36543 32993 33048 1
36544 32998 33049 1
36545 32998 33050 1
36546 32999 33051 1
36547 32999 33052 1
36548 33000 33053 1
36549 33000 33054 1
36550 33008 33055 1
36551 33011 33056 1
36552 33017 33057 1
36553 33017 33058 1
36554 33018 33059 1
36555 33018 33060 1
36556 33019 33061 1
36557 33019 33062 1
36558 33020 33063 1
36559 33022 33064 1
36560 33023 33065 1
36561 33023 33066 1
36562 33026 33067 1
36563 33030 33068 1
36564 33032 33069 1
36565 33035 33070 1
36566 33036 33071 1
36567 33037 33072 1
36568 33038 33073 1
36569 33038 33074 1
36570 33038 33075 1
36571 33039 33076 1
36572 33040 33077 1
36573 33041 33078 1
36574 33041 33079 1
36575 33041 33080 1
36576 33042 33081 1
36577 33043 33082 1
36578 33044 33083 1
36579 33008 33084 1
36580 33011 33085 1
36581 33040 33086 1
36582 33087 33088 am
36583 33088 33089 am
36584 33089 33090 am
36585 33090 33091 am
36586 33091 33092 am
36587 33092 33087 am
36588 33093 33094 am
36589 33094 33095 1
36590 33089 33095 1
36591 33090 33093 1
36592 33096 33097 am
36593 33097 33098 am
36594 33098 33099 am
36595 33093 33099 am
36596 33094 33096 am
36597 33100 33101 1
36598 33101 33102 1
36599 33102 33103 1
36600 33098 33103 1
36601 33099 33100 1
36602 33104 33105 am
36603 33105 33106 am
36604 33097 33106 am
36605 33103 33104 am
36606 33107 33108 am
36607 33108 33109 am
36608 33096 33109 am
36609 33106 33107 am
36610 33110 33111 1
36611 33111 33112 am
36612 33112 33113 1
36613 33104 33113 1
36614 33105 33110 1
36615 33114 33115 am
36616 33115 33116 am
36617 33116 33117 am
36618 33111 33117 am
36619 33112 33114 am
36620 33118 33119 1
36621 33119 33120 1
36622 33120 33121 1
36623 33115 33121 1
36624 33116 33118 1
36625 33122 33123 am
36626 33123 33124 am
36627 33117 33122 am
36628 33118 33124 am
36629 33125 33126 1
36630 33126 33127 am
36631 33107 33127 am
36632 33108 33125 1
36633 33128 33129 am
36634 33129 33130 am
36635 33130 33131 am
36636 33126 33131 am
36637 33127 33128 am
36638 33132 33133 am
36639 33133 33134 am
36640 33134 33135 am
36641 33130 33135 am
36642 33131 33132 am
36643 33136 33137 am
36644 33137 33138 am
36645 33129 33138 am
36646 33135 33136 am
36647 33087 33139 1
36648 33092 33140 1
36649 33109 33141 1
36650 33133 33142 1
36651 33142 33143 1
36652 33123 33144 1
36653 33114 33145 1
36654 33136 33146 1
36655 33088 33147 1
36656 33091 33148 1
36657 33095 33149 1
36658 33095 33150 1
36659 33100 33151 1
36660 33100 33152 1
36661 33101 33153 1
36662 33101 33154 1
36663 33102 33155 1
36664 33102 33156 1
36665 33110 33157 1
36666 33113 33158 1
36667 33119 33159 1
36668 33119 33160 1
36669 33120 33161 1
36670 33120 33162 1
36671 33121 33163 1
36672 33121 33164 1
36673 33122 33165 1
36674 33124 33166 1
36675 33125 33167 1
36676 33125 33168 1
36677 33128 33169 1
36678 33132 33170 1
36679 33134 33171 1
36680 33137 33172 1
36681 33138 33173 1
36682 33139 33174 1
36683 33140 33175 1
36684 33140 33176 1
36685 33140 33177 1
36686 33141 33178 1
36687 33142 33179 1
36688 33143 33180 1
36689 33143 33181 1
36690 33143 33182 1
36691 33144 33183 1
36692 33145 33184 1
36693 33146 33185 1
36694 33110 33186 1
36695 33113 33187 1
36696 33142 33188 1
36697 33189 33190 am
36698 33190 33191 am
36699 33191 33192 am
36700 33192 33193 am
36701 33193 33194 am
36702 33194 33189 am
36703 33195 33196 am
36704 33196 33197 1
36705 33191 33197 1
36706 33192 33195 1
36707 33198 33199 am
36708 33199 33200 am
36709 33200 33201 am
36710 33195 33201 am
36711 33196 33198 am
36712 33202 33203 1
36713 33203 33204 1
36714 33204 33205 1
36715 33200 33205 1
36716 33201 33202 1
36717 33206 33207 am
36718 33207 33208 am
36719 33199 33208 am
36720 33205 33206 am
36721 33209 33210 am
36722 33210 33211 am
36723 33198 33211 am
36724 33208 33209 am
36725 33212 33213 1
36726 33213 33214 am
36727 33214 33215 1
36728 33206 33215 1
36729 33207 33212 1
36730 33216 33217 am
36731 33217 33218 am
36732 33218 33219 am
36733 33213 33219 am
36734 33214 33216 am
36735 33220 33221 1
36736 33221 33222 1
36737 33222 33223 1
36738 33217 33223 1
36739 33218 33220 1
36740 33224 33225 am
36741 33225 33226 am
36742 33219 33224 am
36743 33220 33226 am
36744 33227 33228 1
36745 33228 33229 am
36746 33209 33229 am
36747 33210 33227 1
36748 33230 33231 am
36749 33231 33232 am
36750 33232 33233 am
36751 33228 33233 am
36752 33229 33230 am
36753 33234 33235 am
36754 33235 33236 am
36755 33236 33237 am
36756 33232 33237 am
36757 33233 33234 am
36758 33238 33239 am
36759 33239 33240 am
36760 33231 33240 am
36761 33237 33238 am
36762 33189 33241 1
36763 33194 33242 1
36764 33211 33243 1
36765 33235 33244 1
36766 33244 33245 1
36767 33225 33246 1
36768 33216 33247 1
36769 33238 33248 1
36770 33190 33249 1
36771 33193 33250 1
36772 33197 33251 1
36773 33197 33252 1
36774 33202 33253 1
36775 33202 33254 1
36776 33203 33255 1
36777 33203 33256 1
36778 33204 33257 1
36779 33204 33258 1
36780 33212 33259 1
36781 33215 33260 1
36782 33221 33261 1
36783 33221 33262 1
36784 33222 33263 1
36785 33222 33264 1
36786 33223 33265 1
36787 33223 33266 1
36788 33224 33267 1
36789 33226 33268 1
36790 33227 33269 1
36791 33227 33270 1
36792 33230 33271 1
36793 33234 33272 1
36794 33236 33273 1
36795 33239 33274 1
36796 33240 33275 1
36797 33241 33276 1
36798 33242 33277 1
36799 33242 33278 1
36800 33242 33279 1
36801 33243 33280 1
36802 33244 33281 1
36803 33245 33282 1
36804 33245 33283 1
36805 33245 33284 1
36806 33246 33285 1
36807 33247 33286 1
36808 33248 33287 1
36809 33212 33288 1
36810 33215 33289 1
36811 33244 33290 1
36812 33291 33292 am
36813 33292 33293 am
36814 33293 33294 am
36815 33294 33295 am
36816 33295 33296 am
36817 33296 33291 am
36818 33297 33298 am
36819 33298 33299 1
36820 33293 33299 1
36821 33294 33297 1
36822 33300 33301 am
36823 33301 33302 am
36824 33302 33303 am
36825 33297 33303 am
36826 33298 33300 am
36827 33304 33305 1
36828 33305 33306 1
36829 33306 33307 1
36830 33302 33307 1
36831 33303 33304 1
36832 33308 33309 am
36833 33309 33310 am
36834 33301 33310 am
36835 33307 33308 am
36836 33311 33312 am
36837 33312 33313 am
36838 33300 33313 am
36839 33310 33311 am
36840 33314 33315 1
36841 33315 33316 am
36842 33316 33317 1
36843 33308 33317 1
36844 33309 33314 1
36845 33318 33319 am
36846 33319 33320 am
36847 33320 33321 am
36848 33315 33321 am
36849 33316 33318 am
36850 33322 33323 1
36851 33323 33324 1
36852 33324 33325 1
36853 33319 33325 1
36854 33320 33322 1
36855 33326 33327 am
36856 33327 33328 am
36857 33321 33326 am
36858 33322 33328 am
36859 33329 33330 1
36860 33330 33331 am
36861 33311 33331 am
36862 33312 33329 1
36863 33332 33333 am
36864 33333 33334 am
36865 33334 33335 am
36866 33330 33335 am
36867 33331 33332 am
36868 33336 33337 am
36869 33337 33338 am
36870 33338 33339 am
36871 33334 33339 am
36872 33335 33336 am
36873 33340 33341 am
36874 33341 33342 am
36875 33333 33342 am
36876 33339 33340 am
36877 33291 33343 1
36878 33296 33344 1
36879 33313 33345 1
36880 33337 33346 1
36881 33346 33347 1
36882 33327 33348 1
36883 33318 33349 1
36884 33340 33350 1
36885 33292 33351 1
36886 33295 33352 1
36887 33299 33353 1
36888 33299 33354 1
36889 33304 33355 1
36890 33304 33356 1
36891 33305 33357 1
36892 33305 33358 1
36893 33306 33359 1
36894 33306 33360 1
36895 33314 33361 1
36896 33317 33362 1
36897 33323 33363 1
36898 33323 33364 1
36899 33324 33365 1
36900 33324 33366 1
36901 33325 33367 1
36902 33325 33368 1
36903 33326 33369 1
36904 33328 33370 1
36905 33329 33371 1
36906 33329 33372 1
36907 33332 33373 1
36908 33336 33374 1
36909 33338 33375 1
36910 33341 33376 1
36911 33342 33377 1
36912 33343 33378 1
36913 33344 33379 1
36914 33344 33380 1
36915 33344 33381 1
36916 33345 33382 1
36917 33346 33383 1
36918 33347 33384 1
36919 33347 33385 1
36920 33347 33386 1
36921 33348 33387 1
36922 33349 33388 1
36923 33350 33389 1
36924 33314 33390 1
36925 33317 33391 1
36926 33346 33392 1
36927 33393 33394 am
36928 33394 33395 am
36929 33395 33396 am
36930 33396 33397 am
36931 33397 33398 am
36932 33398 33393 am
36933 33399 33400 am
36934 33400 33401 1
36935 33395 33401 1
36936 33396 33399 1
36937 33402 33403 am
36938 33403 33404 am
36939 33404 33405 am
36940 33399 33405 am
36941 33400 33402 am
36942 33406 33407 1
36943 33407 33408 1
36944 33408 33409 1
36945 33404 33409 1
36946 33405 33406 1
36947 33410 33411 am
36948 33411 33412 am
36949 33403 33412 am
36950 33409 33410 am
36951 33413 33414 am
36952 33414 33415 am
36953 33402 33415 am
36954 33412 33413 am
36955 33416 33417 1
36956 33417 33418 am
36957 33418 33419 1
36958 33410 33419 1
36959 33411 33416 1
36960 33420 33421 am
36961 33421 33422 am
36962 33422 33423 am
36963 33417 33423 am
36964 33418 33420 am
36965 33424 33425 1
36966 33425 33426 1
36967 33426 33427 1
36968 33421 33427 1
36969 33422 33424 1
36970 33428 33429 am
36971 33429 33430 am
36972 33423 33428 am
36973 33424 33430 am
36974 33431 33432 1
36975 33432 33433 am
36976 33413 33433 am
36977 33414 33431 1
36978 33434 33435 am
36979 33435 33436 am
36980 33436 33437 am
36981 33432 33437 am
36982 33433 33434 am
36983 33438 33439 am
36984 33439 33440 am
36985 33440 33441 am
36986 33436 33441 am
36987 33437 33438 am
36988 33442 33443 am
36989 33443 33444 am
36990 33435 33444 am
36991 33441 33442 am
36992 33393 33445 1
36993 33398 33446 1
36994 33415 33447 1
36995 33439 33448 1
36996 33448 33449 1
36997 33429 33450 1
36998 33420 33451 1
36999 33442 33452 1
37000 33394 33453 1
37001 33397 33454 1
37002 33401 33455 1
37003 33401 33456 1
37004 33406 33457 1
37005 33406 33458 1
37006 33407 33459 1
37007 33407 33460 1
37008 33408 33461 1
37009 33408 33462 1
37010 33416 33463 1
37011 33419 33464 1
37012 33425 33465 1
37013 33425 33466 1
37014 33426 33467 1
37015 33426 33468 1
37016 33427 33469 1
37017 33427 33470 1
37018 33428 33471 1
37019 33430 33472 1
37020 33431 33473 1
37021 33431 33474 1
37022 33434 33475 1
37023 33438 33476 1
37024 33440 33477 1
37025 33443 33478 1
37026 33444 33479 1
37027 33445 33480 1
37028 33446 33481 1
37029 33446 33482 1
37030 33446 33483 1
37031 33447 33484 1
37032 33448 33485 1
37033 33449 33486 1
37034 33449 33487 1
37035 33449 33488 1
37036 33450 33489 1
37037 33451 33490 1
37038 33452 33491 1
37039 33416 33492 1
37040 33419 33493 1
37041 33448 33494 1
37042 33495 33496 am
37043 33496 33497 am
37044 33497 33498 am
37045 33498 33499 am
37046 33499 33500 am
37047 33500 33495 am
37048 33501 33502 am
37049 33502 33503 1
37050 33497 33503 1
37051 33498 33501 1
37052 33504 33505 am
37053 33505 33506 am
37054 33506 33507 am
37055 33501 33507 am
37056 33502 33504 am
37057 33508 33509 1
37058 33509 33510 1
37059 33510 33511 1
37060 33506 33511 1
37061 33507 33508 1
37062 33512 33513 am
37063 33513 33514 am
37064 33505 33514 am
37065 33511 33512 am
37066 33515 33516 am
37067 33516 33517 am
37068 33504 33517 am
37069 33514 33515 am
37070 33518 33519 1
37071 33519 33520 am
37072 33520 33521 1
37073 33512 33521 1
37074 33513 33518 1
37075 33522 33523 am
37076 33523 33524 am
37077 33524 33525 am
37078 33519 33525 am
37079 33520 33522 am
37080 33526 33527 1
37081 33527 33528 1
37082 33528 33529 1
37083 33523 33529 1
37084 33524 33526 1
37085 33530 33531 am
37086 33531 33532 am
37087 33525 33530 am
37088 33526 33532 am
37089 33533 33534 1
37090 33534 33535 am
37091 33515 33535 am
37092 33516 33533 1
37093 33536 33537 am
37094 33537 33538 am
37095 33538 33539 am
37096 33534 33539 am
37097 33535 33536 am
37098 33540 33541 am
37099 33541 33542 am
37100 33542 33543 am
37101 33538 33543 am
37102 33539 33540 am
37103 33544 33545 am
37104 33545 33546 am
37105 33537 33546 am
37106 33543 33544 am
37107 33495 33547 1
37108 33500 33548 1
37109 33517 33549 1
37110 33541 33550 1
37111 33550 33551 1
37112 33531 33552 1
37113 33522 33553 1
37114 33544 33554 1
37115 33496 33555 1
37116 33499 33556 1
37117 33503 33557 1
37118 33503 33558 1
37119 33508 33559 1
37120 33508 33560 1
37121 33509 33561 1
37122 33509 33562 1
37123 33510 33563 1
37124 33510 33564 1
37125 33518 33565 1
37126 33521 33566 1
37127 33527 33567 1
37128 33527 33568 1
37129 33528 33569 1
37130 33528 33570 1
37131 33529 33571 1
37132 33529 33572 1
37133 33530 33573 1
37134 33532 33574 1
37135 33533 33575 1
37136 33533 33576 1
37137 33536 33577 1
37138 33540 33578 1
37139 33542 33579 1
37140 33545 33580 1
37141 33546 33581 1
37142 33547 33582 1
37143 33548 33583 1
37144 33548 33584 1
37145 33548 33585 1
37146 33549 33586 1
37147 33550 33587 1
37148 33551 33588 1
37149 33551 33589 1
37150 33551 33590 1
37151 33552 33591 1
37152 33553 33592 1
37153 33554 33593 1
37154 33518 33594 1
37155 33521 33595 1
37156 33550 33596 1
37157 33597 33598 am
37158 33598 33599 am
37159 33599 33600 am
37160 33600 33601 am
37161 33601 33602 am
37162 33602 33597 am
37163 33603 33604 am
37164 33604 33605 1
37165 33599 33605 1
37166 33600 33603 1
37167 33606 33607 am
37168 33607 33608 am
37169 33608 33609 am
37170 33603 33609 am
37171 33604 33606 am
37172 33610 33611 1
37173 33611 33612 1
37174 33612 33613 1
37175 33608 33613 1
37176 33609 33610 1
37177 33614 33615 am
37178 33615 33616 am
37179 33607 33616 am
37180 33613 33614 am
37181 33617 33618 am
37182 33618 33619 am
37183 33606 33619 am
37184 33616 33617 am
37185 33620 33621 1
37186 33621 33622 am
37187 33622 33623 1
37188 33614 33623 1
37189 33615 33620 1
37190 33624 33625 am
37191 33625 33626 am
37192 33626 33627 am
37193 33621 33627 am
37194 33622 33624 am
37195 33628 33629 1
37196 33629 33630 1
37197 33630 33631 1
37198 33625 33631 1
37199 33626 33628 1
37200 33632 33633 am
37201 33633 33634 am
37202 33627 33632 am
37203 33628 33634 am
37204 33635 33636 1
37205 33636 33637 am
37206 33617 33637 am
37207 33618 33635 1
37208 33638 33639 am
37209 33639 33640 am
37210 33640 33641 am
37211 33636 33641 am
37212 33637 33638 am
37213 33642 33643 am
37214 33643 33644 am
37215 33644 33645 am
37216 33640 33645 am
37217 33641 33642 am
37218 33646 33647 am
37219 33647 33648 am
37220 33639 33648 am
37221 33645 33646 am
37222 33597 33649 1
37223 33602 33650 1
37224 33619 33651 1
37225 33643 33652 1
37226 33652 33653 1
37227 33633 33654 1
37228 33624 33655 1
37229 33646 33656 1
37230 33598 33657 1
37231 33601 33658 1
37232 33605 33659 1
37233 33605 33660 1
37234 33610 33661 1
37235 33610 33662 1
37236 33611 33663 1
37237 33611 33664 1
37238 33612 33665 1
37239 33612 33666 1
37240 33620 33667 1
37241 33623 33668 1
37242 33629 33669 1
37243 33629 33670 1
37244 33630 33671 1
37245 33630 33672 1
37246 33631 33673 1
37247 33631 33674 1
37248 33632 33675 1
37249 33634 33676 1
37250 33635 33677 1
37251 33635 33678 1
37252 33638 33679 1
37253 33642 33680 1
37254 33644 33681 1
37255 33647 33682 1
37256 33648 33683 1
37257 33649 33684 1
37258 33650 33685 1
37259 33650 33686 1
37260 33650 33687 1
37261 33651 33688 1
37262 33652 33689 1
37263 33653 33690 1
37264 33653 33691 1
37265 33653 33692 1
37266 33654 33693 1
37267 33655 33694 1
37268 33656 33695 1
37269 33620 33696 1
37270 33623 33697 1
37271 33652 33698 1
37272 33699 33700 am
37273 33700 33701 am
37274 33701 33702 am
37275 33702 33703 am
37276 33703 33704 am
37277 33704 33699 am
37278 33705 33706 am
37279 33706 33707 1
37280 33701 33707 1
37281 33702 33705 1
37282 33708 33709 am
37283 33709 33710 am
37284 33710 33711 am
37285 33705 33711 am
37286 33706 33708 am
37287 33712 33713 1
37288 33713 33714 1
37289 33714 33715 1
37290 33710 33715 1
37291 33711 33712 1
37292 33716 33717 am
37293 33717 33718 am
37294 33709 33718 am
37295 33715 33716 am
37296 33719 33720 am
37297 33720 33721 am
37298 33708 33721 am
37299 33718 33719 am
37300 33722 33723 1
37301 33723 33724 am
37302 33724 33725 1
37303 33716 33725 1
37304 33717 33722 1
37305 33726 33727 am
37306 33727 33728 am
37307 33728 33729 am
37308 33723 33729 am
37309 33724 33726 am
37310 33730 33731 1
37311 33731 33732 1
37312 33732 33733 1
37313 33727 33733 1
37314 33728 33730 1
37315 33734 33735 am
37316 33735 33736 am
37317 33729 33734 am
37318 33730 33736 am
37319 33737 33738 1
37320 33738 33739 am
37321 33719 33739 am
37322 33720 33737 1
37323 33740 33741 am
37324 33741 33742 am
37325 33742 33743 am
37326 33738 33743 am
37327 33739 33740 am
37328 33744 33745 am
37329 33745 33746 am
37330 33746 33747 am
37331 33742 33747 am
37332 33743 33744 am
37333 33748 33749 am
37334 33749 33750 am
37335 33741 33750 am
37336 33747 33748 am
37337 33699 33751 1
37338 33704 33752 1
37339 33721 33753 1
37340 33745 33754 1
37341 33754 33755 1
37342 33735 33756 1
37343 33726 33757 1
37344 33748 33758 1
37345 33700 33759 1
37346 33703 33760 1
37347 33707 33761 1
37348 33707 33762 1
37349 33712 33763 1
37350 33712 33764 1
37351 33713 33765 1
37352 33713 33766 1
37353 33714 33767 1
37354 33714 33768 1
37355 33722 33769 1
37356 33725 33770 1
37357 33731 33771 1
37358 33731 33772 1
37359 33732 33773 1
37360 33732 33774 1
37361 33733 33775 1
37362 33733 33776 1
37363 33734 33777 1
37364 33736 33778 1
37365 33737 33779 1
37366 33737 33780 1
37367 33740 33781 1
37368 33744 33782 1
37369 33746 33783 1
37370 33749 33784 1
37371 33750 33785 1
37372 33751 33786 1
37373 33752 33787 1
37374 33752 33788 1
37375 33752 33789 1
37376 33753 33790 1
37377 33754 33791 1
37378 33755 33792 1
37379 33755 33793 1
37380 33755 33794 1
37381 33756 33795 1
37382 33757 33796 1
37383 33758 33797 1
37384 33722 33798 1
37385 33725 33799 1
37386 33754 33800 1
37387 33801 33802 am
37388 33802 33803 am
37389 33803 33804 am
37390 33804 33805 am
37391 33805 33806 am
37392 33806 33801 am
37393 33807 33808 am
37394 33808 33809 1
37395 33803 33809 1
37396 33804 33807 1
37397 33810 33811 am
37398 33811 33812 am
37399 33812 33813 am
37400 33807 33813 am
37401 33808 33810 am
37402 33814 33815 1
37403 33815 33816 1
37404 33816 33817 1
37405 33812 33817 1
37406 33813 33814 1
37407 33818 33819 am
37408 33819 33820 am
37409 33811 33820 am
37410 33817 33818 am
37411 33821 33822 am
37412 33822 33823 am
37413 33810 33823 am
37414 33820 33821 am
37415 33824 33825 1
37416 33825 33826 am
37417 33826 33827 1
37418 33818 33827 1
37419 33819 33824 1
37420 33828 33829 am
37421 33829 33830 am
37422 33830 33831 am
37423 33825 33831 am
37424 33826 33828 am
37425 33832 33833 1
37426 33833 33834 1
37427 33834 33835 1
37428 33829 33835 1
37429 33830 33832 1
37430 33836 33837 am
37431 33837 33838 am
37432 33831 33836 am
37433 33832 33838 am
37434 33839 33840 1
37435 33840 33841 am
37436 33821 33841 am
37437 33822 33839 1
37438 33842 33843 am
37439 33843 33844 am
37440 33844 33845 am
37441 33840 33845 am
37442 33841 33842 am
37443 33846 33847 am
37444 33847 33848 am
37445 33848 33849 am
37446 33844 33849 am
37447 33845 33846 am
37448 33850 33851 am
37449 33851 33852 am
37450 33843 33852 am
37451 33849 33850 am
37452 33801 33853 1
37453 33806 33854 1
37454 33823 33855 1
37455 33847 33856 1
37456 33856 33857 1
37457 33837 33858 1
37458 33828 33859 1
37459 33850 33860 1
37460 33802 33861 1
37461 33805 33862 1
37462 33809 33863 1
37463 33809 33864 1
37464 33814 33865 1
37465 33814 33866 1
37466 33815 33867 1
37467 33815 33868 1
37468 33816 33869 1
37469 33816 33870 1
37470 33824 33871 1
37471 33827 33872 1
37472 33833 33873 1
37473 33833 33874 1
37474 33834 33875 1
37475 33834 33876 1
37476 33835 33877 1
37477 33835 33878 1
37478 33836 33879 1
37479 33838 33880 1
37480 33839 33881 1
37481 33839 33882 1
37482 33842 33883 1
37483 33846 33884 1
37484 33848 33885 1
37485 33851 33886 1
37486 33852 33887 1
37487 33853 33888 1
37488 33854 33889 1
37489 33854 33890 1
37490 33854 33891 1
37491 33855 33892 1
37492 33856 33893 1
37493 33857 33894 1
37494 33857 33895 1
37495 33857 33896 1
37496 33858 33897 1
37497 33859 33898 1
37498 33860 33899 1
37499 33824 33900 1
37500 33827 33901 1
37501 33856 33902 1
37502 33903 33904 am
37503 33904 33905 am
37504 33905 33906 am
37505 33906 33907 am
37506 33907 33908 am
37507 33908 33903 am
37508 33909 33910 am
37509 33910 33911 1
37510 33905 33911 1
37511 33906 33909 1
37512 33912 33913 am
37513 33913 33914 am
37514 33914 33915 am
37515 33909 33915 am
37516 33910 33912 am
37517 33916 33917 1
37518 33917 33918 1
37519 33918 33919 1
37520 33914 33919 1
37521 33915 33916 1
37522 33920 33921 am
37523 33921 33922 am
37524 33913 33922 am
37525 33919 33920 am
37526 33923 33924 am
37527 33924 33925 am
37528 33912 33925 am
37529 33922 33923 am
37530 33926 33927 1
37531 33927 33928 am
37532 33928 33929 1
37533 33920 33929 1
37534 33921 33926 1
37535 33930 33931 am
37536 33931 33932 am
37537 33932 33933 am
37538 33927 33933 am
37539 33928 33930 am
37540 33934 33935 1
37541 33935 33936 1
37542 33936 33937 1
37543 33931 33937 1
37544 33932 33934 1
37545 33938 33939 am
37546 33939 33940 am
37547 33933 33938 am
37548 33934 33940 am
37549 33941 33942 1
37550 33942 33943 am
37551 33923 33943 am
37552 33924 33941 1
37553 33944 33945 am
37554 33945 33946 am
37555 33946 33947 am
37556 33942 33947 am
37557 33943 33944 am
37558 33948 33949 am
37559 33949 33950 am
37560 33950 33951 am
37561 33946 33951 am
37562 33947 33948 am
37563 33952 33953 am
37564 33953 33954 am
37565 33945 33954 am
37566 33951 33952 am
37567 33903 33955 1
37568 33908 33956 1
37569 33925 33957 1
37570 33949 33958 1
37571 33958 33959 1
37572 33939 33960 1
37573 33930 33961 1
37574 33952 33962 1
37575 33904 33963 1
37576 33907 33964 1
37577 33911 33965 1
37578 33911 33966 1
37579 33916 33967 1
37580 33916 33968 1
37581 33917 33969 1
37582 33917 33970 1
37583 33918 33971 1
37584 33918 33972 1
37585 33926 33973 1
37586 33929 33974 1
37587 33935 33975 1
37588 33935 33976 1
37589 33936 33977 1
37590 33936 33978 1
37591 33937 33979 1
37592 33937 33980 1
37593 33938 33981 1
37594 33940 33982 1
37595 33941 33983 1
37596 33941 33984 1
37597 33944 33985 1
37598 33948 33986 1
37599 33950 33987 1
37600 33953 33988 1
37601 33954 33989 1
37602 33955 33990 1
37603 33956 33991 1
37604 33956 33992 1
37605 33956 33993 1
37606 33957 33994 1
37607 33958 33995 1
37608 33959 33996 1
37609 33959 33997 1
37610 33959 33998 1
37611 33960 33999 1
37612 33961 34000 1
37613 33962 34001 1
37614 33926 34002 1
37615 33929 34003 1
37616 33958 34004 1
37617 34005 34006 am
37618 34006 34007 am
37619 34007 34008 am
37620 34008 34009 am
37621 34009 34010 am
37622 34010 34005 am
37623 34011 34012 am
37624 34012 34013 1
37625 34007 34013 1
37626 34008 34011 1
37627 34014 34015 am
37628 34015 34016 am
37629 34016 34017 am
37630 34011 34017 am
37631 34012 34014 am
37632 34018 34019 1
37633 34019 34020 1
37634 34020 34021 1
37635 34016 34021 1
37636 34017 34018 1
37637 34022 34023 am
37638 34023 34024 am
37639 34015 34024 am
37640 34021 34022 am
37641 34025 34026 am
37642 34026 34027 am
37643 34014 34027 am
37644 34024 34025 am
37645 34028 34029 1
37646 34029 34030 am
37647 34030 34031 1
37648 34022 34031 1
37649 34023 34028 1
37650 34032 34033 am
37651 34033 34034 am
37652 34034 34035 am
37653 34029 34035 am
37654 34030 34032 am
37655 34036 34037 1
37656 34037 34038 1
37657 34038 34039 1
37658 34033 34039 1
37659 34034 34036 1
37660 34040 34041 am
37661 34041 34042 am
37662 34035 34040 am
37663 34036 34042 am
37664 34043 34044 1
37665 34044 34045 am
37666 34025 34045 am
37667 34026 34043 1
37668 34046 34047 am
37669 34047 34048 am
37670 34048 34049 am
37671 34044 34049 am
37672 34045 34046 am
37673 34050 34051 am
37674 34051 34052 am
37675 34052 34053 am
37676 34048 34053 am
37677 34049 34050 am
37678 34054 34055 am
37679 34055 34056 am
37680 34047 34056 am
37681 34053 34054 am
37682 34005 34057 1
37683 34010 34058 1
37684 34027 34059 1
37685 34051 34060 1
37686 34060 34061 1
37687 34041 34062 1
37688 34032 34063 1
37689 34054 34064 1
37690 34006 34065 1
37691 34009 34066 1
37692 34013 34067 1
37693 34013 34068 1
37694 34018 34069 1
37695 34018 34070 1
37696 34019 34071 1
37697 34019 34072 1
37698 34020 34073 1
37699 34020 34074 1
37700 34028 34075 1
37701 34031 34076 1
37702 34037 34077 1
37703 34037 34078 1
37704 34038 34079 1
37705 34038 34080 1
37706 34039 34081 1
37707 34039 34082 1
37708 34040 34083 1
37709 34042 34084 1
37710 34043 34085 1
37711 34043 34086 1
37712 34046 34087 1
37713 34050 34088 1
37714 34052 34089 1
37715 34055 34090 1
37716 34056 34091 1
37717 34057 34092 1
37718 34058 34093 1
37719 34058 34094 1
37720 34058 34095 1
37721 34059 34096 1
37722 34060 34097 1
37723 34061 34098 1
37724 34061 34099 1
37725 34061 34100 1
37726 34062 34101 1
37727 34063 34102 1
37728 34064 34103 1
37729 34028 34104 1
37730 34031 34105 1
37731 34060 34106 1
37732 34107 34108 am
37733 34108 34109 am
37734 34109 34110 am
37735 34110 34111 am
37736 34111 34112 am
37737 34112 34107 am
37738 34113 34114 am
37739 34114 34115 1
37740 34109 34115 1
37741 34110 34113 1
37742 34116 34117 am
37743 34117 34118 am
37744 34118 34119 am
37745 34113 34119 am
37746 34114 34116 am
37747 34120 34121 1
37748 34121 34122 1
37749 34122 34123 1
37750 34118 34123 1
37751 34119 34120 1
37752 34124 34125 am
37753 34125 34126 am
37754 34117 34126 am
37755 34123 34124 am
37756 34127 34128 am
37757 34128 34129 am
37758 34116 34129 am
37759 34126 34127 am
37760 34130 34131 1
37761 34131 34132 am
37762 34132 34133 1
37763 34124 34133 1
37764 34125 34130 1
37765 34134 34135 am
37766 34135 34136 am
37767 34136 34137 am
37768 34131 34137 am
37769 34132 34134 am
37770 34138 34139 1
37771 34139 34140 1
37772 34140 34141 1
37773 34135 34141 1
37774 34136 34138 1
37775 34142 34143 am
37776 34143 34144 am
37777 34137 34142 am
37778 34138 34144 am
37779 34145 34146 1
37780 34146 34147 am
37781 34127 34147 am
37782 34128 34145 1
37783 34148 34149 am
37784 34149 34150 am
37785 34150 34151 am
37786 34146 34151 am
37787 34147 34148 am
37788 34152 34153 am
37789 34153 34154 am
37790 34154 34155 am
37791 34150 34155 am
37792 34151 34152 am
37793 34156 34157 am
37794 34157 34158 am
37795 34149 34158 am
37796 34155 34156 am
37797 34107 34159 1
37798 34112 34160 1
37799 34129 34161 1
37800 34153 34162 1
37801 34162 34163 1
37802 34143 34164 1
37803 34134 34165 1
37804 34156 34166 1
37805 34108 34167 1
37806 34111 34168 1
37807 34115 34169 1
37808 34115 34170 1
37809 34120 34171 1
37810 34120 34172 1
37811 34121 34173 1
37812 34121 34174 1
37813 34122 34175 1
37814 34122 34176 1
37815 34130 34177 1
37816 34133 34178 1
37817 34139 34179 1
37818 34139 34180 1
37819 34140 34181 1
37820 34140 34182 1
37821 34141 34183 1
37822 34141 34184 1
37823 34142 34185 1
37824 34144 34186 1
37825 34145 34187 1
37826 34145 34188 1
37827 34148 34189 1
37828 34152 34190 1
37829 34154 34191 1
37830 34157 34192 1
37831 34158 34193 1
37832 34159 34194 1
37833 34160 34195 1
37834 34160 34196 1
37835 34160 34197 1
37836 34161 34198 1
37837 34162 34199 1
37838 34163 34200 1
37839 34163 34201 1
37840 34163 34202 1
37841 34164 34203 1
37842 34165 34204 1
37843 34166 34205 1
37844 34130 34206 1
37845 34133 34207 1
37846 34162 34208 1
37847 34209 34210 am
37848 34210 34211 am
37849 34211 34212 am
37850 34212 34213 am
37851 34213 34214 am
37852 34214 34209 am
37853 34215 34216 am
37854 34216 34217 1
37855 34211 34217 1
37856 34212 34215 1
37857 34218 34219 am
37858 34219 34220 am
37859 34220 34221 am
37860 34215 34221 am
37861 34216 34218 am
37862 34222 34223 1
37863 34223 34224 1
37864 34224 34225 1
37865 34220 34225 1
37866 34221 34222 1
37867 34226 34227 am
37868 34227 34228 am
37869 34219 34228 am
37870 34225 34226 am
37871 34229 34230 am
37872 34230 34231 am
37873 34218 34231 am
37874 34228 34229 am
37875 34232 34233 1
37876 34233 34234 am
37877 34234 34235 1
37878 34226 34235 1
37879 34227 34232 1
37880 34236 34237 am
37881 34237 34238 am
37882 34238 34239 am
37883 34233 34239 am
37884 34234 34236 am
37885 34240 34241 1
37886 34241 34242 1
37887 34242 34243 1
37888 34237 34243 1
37889 34238 34240 1
37890 34244 34245 am
37891 34245 34246 am
37892 34239 34244 am
37893 34240 34246 am
37894 34247 34248 1
37895 34248 34249 am
37896 34229 34249 am
37897 34230 34247 1
37898 34250 34251 am
37899 34251 34252 am
37900 34252 34253 am
37901 34248 34253 am
37902 34249 34250 am
37903 34254 34255 am
37904 34255 34256 am
37905 34256 34257 am
37906 34252 34257 am
37907 34253 34254 am
37908 34258 34259 am
37909 34259 34260 am
37910 34251 34260 am
37911 34257 34258 am
37912 34209 34261 1
37913 34214 34262 1
37914 34231 34263 1
37915 34255 34264 1
37916 34264 34265 1
37917 34245 34266 1
37918 34236 34267 1
37919 34258 34268 1
37920 34210 34269 1
37921 34213 34270 1
37922 34217 34271 1
37923 34217 34272 1
37924 34222 34273 1
37925 34222 34274 1
37926 34223 34275 1
37927 34223 34276 1
37928 34224 34277 1
37929 34224 34278 1
37930 34232 34279 1
37931 34235 34280 1
37932 34241 34281 1
37933 34241 34282 1
37934 34242 34283 1
37935 34242 34284 1
37936 34243 34285 1
37937 34243 34286 1
37938 34244 34287 1
37939 34246 34288 1
37940 34247 34289 1
37941 34247 34290 1
37942 34250 34291 1
37943 34254 34292 1
37944 34256 34293 1
37945 34259 34294 1
37946 34260 34295 1
37947 34261 34296 1
37948 34262 34297 1
37949 34262 34298 1
37950 34262 34299 1
37951 34263 34300 1
37952 34264 34301 1
37953 34265 34302 1
37954 34265 34303 1
37955 34265 34304 1
37956 34266 34305 1
37957 34267 34306 1
37958 34268 34307 1
37959 34232 34308 1
37960 34235 34309 1
37961 34264 34310 1
37962 34311 34312 am
37963 34312 34313 am
37964 34313 34314 am
37965 34314 34315 am
37966 34315 34316 am
37967 34316 34311 am
37968 34317 34318 am
37969 34318 34319 1
37970 34313 34319 1
37971 34314 34317 1
37972 34320 34321 am
37973 34321 34322 am
37974 34322 34323 am
37975 34317 34323 am
37976 34318 34320 am
37977 34324 34325 1
37978 34325 34326 1
37979 34326 34327 1
37980 34322 34327 1
37981 34323 34324 1
37982 34328 34329 am
37983 34329 34330 am
37984 34321 34330 am
37985 34327 34328 am
37986 34331 34332 am
37987 34332 34333 am
37988 34320 34333 am
37989 34330 34331 am
37990 34334 34335 1
37991 34335 34336 am
37992 34336 34337 1
37993 34328 34337 1
37994 34329 34334 1
37995 34338 34339 am
37996 34339 34340 am
37997 34340 34341 am
37998 34335 34341 am
37999 34336 34338 am
38000 34342 34343 1
38001 34343 34344 1
38002 34344 34345 1
38003 34339 34345 1
38004 34340 34342 1
38005 34346 34347 am
38006 34347 34348 am
38007 34341 34346 am
38008 34342 34348 am
38009 34349 34350 1
38010 34350 34351 am
38011 34331 34351 am
38012 34332 34349 1
38013 34352 34353 am
38014 34353 34354 am
38015 34354 34355 am
38016 34350 34355 am
38017 34351 34352 am
38018 34356 34357 am
38019 34357 34358 am
38020 34358 34359 am
38021 34354 34359 am
38022 34355 34356 am
38023 34360 34361 am
38024 34361 34362 am
38025 34353 34362 am
38026 34359 34360 am
38027 34311 34363 1
38028 34316 34364 1
38029 34333 34365 1
38030 34357 34366 1
38031 34366 34367 1
38032 34347 34368 1
38033 34338 34369 1
38034 34360 34370 1
38035 34312 34371 1
38036 34315 34372 1
38037 34319 34373 1
38038 34319 34374 1
38039 34324 34375 1
38040 34324 34376 1
38041 34325 34377 1
38042 34325 34378 1
38043 34326 34379 1
38044 34326 34380 1
38045 34334 34381 1
38046 34337 34382 1
38047 34343 34383 1
38048 34343 34384 1
38049 34344 34385 1
38050 34344 34386 1
38051 34345 34387 1
38052 34345 34388 1
38053 34346 34389 1
38054 34348 34390 1
38055 34349 34391 1
38056 34349 34392 1
38057 34352 34393 1
38058 34356 34394 1
38059 34358 34395 1
38060 34361 34396 1
38061 34362 34397 1
38062 34363 34398 1
38063 34364 34399 1
38064 34364 34400 1
38065 34364 34401 1
38066 34365 34402 1
38067 34366 34403 1
38068 34367 34404 1
38069 34367 34405 1
38070 34367 34406 1
38071 34368 34407 1
38072 34369 34408 1
38073 34370 34409 1
38074 34334 34410 1
38075 34337 34411 1
38076 34366 34412 1
38077 34413 34414 am
38078 34414 34415 am
38079 34415 34416 am
38080 34416 34417 am
38081 34417 34418 am
38082 34418 34413 am
38083 34419 34420 am
38084 34420 34421 1
38085 34415 34421 1
38086 34416 34419 1
38087 34422 34423 am
38088 34423 34424 am
38089 34424 34425 am
38090 34419 34425 am
38091 34420 34422 am
38092 34426 34427 1
38093 34427 34428 1
38094 34428 34429 1
38095 34424 34429 1
38096 34425 34426 1
38097 34430 34431 am
38098 34431 34432 am
38099 34423 34432 am
38100 34429 34430 am
38101 34433 34434 am
38102 34434 34435 am
38103 34422 34435 am
38104 34432 34433 am
38105 34436 34437 1
38106 34437 34438 am
38107 34438 34439 1
38108 34430 34439 1
38109 34431 34436 1
38110 34440 34441 am
38111 34441 34442 am
38112 34442 34443 am
38113 34437 34443 am
38114 34438 34440 am
38115 34444 34445 1
38116 34445 34446 1
38117 34446 34447 1
38118 34441 34447 1
38119 34442 34444 1
38120 34448 34449 am
38121 34449 34450 am
38122 34443 34448 am
38123 34444 34450 am
38124 34451 34452 1
38125 34452 34453 am
38126 34433 34453 am
38127 34434 34451 1
38128 34454 34455 am
38129 34455 34456 am
38130 34456 34457 am
38131 34452 34457 am
38132 34453 34454 am
38133 34458 34459 am
38134 34459 34460 am
38135 34460 34461 am
38136 34456 34461 am
38137 34457 34458 am
38138 34462 34463 am
38139 34463 34464 am
38140 34455 34464 am
38141 34461 34462 am
38142 34413 34465 1
38143 34418 34466 1
38144 34435 34467 1
38145 34459 34468 1
38146 34468 34469 1
38147 34449 34470 1
38148 34440 34471 1
38149 34462 34472 1
38150 34414 34473 1
38151 34417 34474 1
38152 34421 34475 1
38153 34421 34476 1
38154 34426 34477 1
38155 34426 34478 1
38156 34427 34479 1
38157 34427 34480 1
38158 34428 34481 1
38159 34428 34482 1
38160 34436 34483 1
38161 34439 34484 1
38162 34445 34485 1
38163 34445 34486 1
38164 34446 34487 1
38165 34446 34488 1
38166 34447 34489 1
38167 34447 34490 1
38168 34448 34491 1
38169 34450 34492 1
38170 34451 34493 1
38171 34451 34494 1
38172 34454 34495 1
38173 34458 34496 1
38174 34460 34497 1
38175 34463 34498 1
38176 34464 34499 1
38177 34465 34500 1
38178 34466 34501 1
38179 34466 34502 1
38180 34466 34503 1
38181 34467 34504 1
38182 34468 34505 1
38183 34469 34506 1
38184 34469 34507 1
38185 34469 34508 1
38186 34470 34509 1
38187 34471 34510 1
38188 34472 34511 1
38189 34436 34512 1
38190 34439 34513 1
38191 34468 34514 1
38192 34515 34516 am
38193 34516 34517 am
38194 34517 34518 am
38195 34518 34519 am
38196 34519 34520 am
38197 34520 34515 am
38198 34521 34522 am
38199 34522 34523 1
38200 34517 34523 1
38201 34518 34521 1
38202 34524 34525 am
38203 34525 34526 am
38204 34526 34527 am
38205 34521 34527 am
38206 34522 34524 am
38207 34528 34529 1
38208 34529 34530 1
38209 34530 34531 1
38210 34526 34531 1
38211 34527 34528 1
38212 34532 34533 am
38213 34533 34534 am
38214 34525 34534 am
38215 34531 34532 am
38216 34535 34536 am
38217 34536 34537 am
38218 34524 34537 am
38219 34534 34535 am
38220 34538 34539 1
38221 34539 34540 am
38222 34540 34541 1
38223 34532 34541 1
38224 34533 34538 1
38225 34542 34543 am
38226 34543 34544 am
38227 34544 34545 am
38228 34539 34545 am
38229 34540 34542 am
38230 34546 34547 1
38231 34547 34548 1
38232 34548 34549 1
38233 34543 34549 1
38234 34544 34546 1
38235 34550 34551 am
38236 34551 34552 am
38237 34545 34550 am
38238 34546 34552 am
38239 34553 34554 1
38240 34554 34555 am
38241 34535 34555 am
38242 34536 34553 1
38243 34556 34557 am
38244 34557 34558 am
38245 34558 34559 am
38246 34554 34559 am
38247 34555 34556 am
38248 34560 34561 am
38249 34561 34562 am
38250 34562 34563 am
38251 34558 34563 am
38252 34559 34560 am
38253 34564 34565 am
38254 34565 34566 am
38255 34557 34566 am
38256 34563 34564 am
38257 34515 34567 1
38258 34520 34568 1
38259 34537 34569 1
38260 34561 34570 1
38261 34570 34571 1
38262 34551 34572 1
38263 34542 34573 1
38264 34564 34574 1
38265 34516 34575 1
38266 34519 34576 1
38267 34523 34577 1
38268 34523 34578 1
38269 34528 34579 1
38270 34528 34580 1
38271 34529 34581 1
38272 34529 34582 1
38273 34530 34583 1
38274 34530 34584 1
38275 34538 34585 1
38276 34541 34586 1
38277 34547 34587 1
38278 34547 34588 1
38279 34548 34589 1
38280 34548 34590 1
38281 34549 34591 1
38282 34549 34592 1
38283 34550 34593 1
38284 34552 34594 1
38285 34553 34595 1
38286 34553 34596 1
38287 34556 34597 1
38288 34560 34598 1
38289 34562 34599 1
38290 34565 34600 1
38291 34566 34601 1
38292 34567 34602 1
38293 34568 34603 1
38294 34568 34604 1
38295 34568 34605 1
38296 34569 34606 1
38297 34570 34607 1
38298 34571 34608 1
38299 34571 34609 1
38300 34571 34610 1
38301 34572 34611 1
38302 34573 34612 1
38303 34574 34613 1
38304 34538 34614 1
38305 34541 34615 1
38306 34570 34616 1
38307 34617 34618 am
38308 34618 34619 am
38309 34619 34620 am
38310 34620 34621 am
38311 34621 34622 am
38312 34622 34617 am
38313 34623 34624 am
38314 34624 34625 1
38315 34619 34625 1
38316 34620 34623 1
38317 34626 34627 am
38318 34627 34628 am
38319 34628 34629 am
38320 34623 34629 am
38321 34624 34626 am
38322 34630 34631 1
38323 34631 34632 1
38324 34632 34633 1
38325 34628 34633 1
38326 34629 34630 1
38327 34634 34635 am
38328 34635 34636 am
38329 34627 34636 am
38330 34633 34634 am
38331 34637 34638 am
38332 34638 34639 am
38333 34626 34639 am
38334 34636 34637 am
38335 34640 34641 1
38336 34641 34642 am
38337 34642 34643 1
38338 34634 34643 1
38339 34635 34640 1
38340 34644 34645 am
38341 34645 34646 am
38342 34646 34647 am
38343 34641 34647 am
38344 34642 34644 am
38345 34648 34649 1
38346 34649 34650 1
38347 34650 34651 1
38348 34645 34651 1
38349 34646 34648 1
38350 34652 34653 am
38351 34653 34654 am
38352 34647 34652 am
38353 34648 34654 am
38354 34655 34656 1
38355 34656 34657 am
38356 34637 34657 am
38357 34638 34655 1
38358 34658 34659 am
38359 34659 34660 am
38360 34660 34661 am
38361 34656 34661 am
38362 34657 34658 am
38363 34662 34663 am
38364 34663 34664 am
38365 34664 34665 am
38366 34660 34665 am
38367 34661 34662 am
38368 34666 34667 am
38369 34667 34668 am
38370 34659 34668 am
38371 34665 34666 am
38372 34617 34669 1
38373 34622 34670 1
38374 34639 34671 1
38375 34663 34672 1
38376 34672 34673 1
38377 34653 34674 1
38378 34644 34675 1
38379 34666 34676 1
38380 34618 34677 1
38381 34621 34678 1
38382 34625 34679 1
38383 34625 34680 1
38384 34630 34681 1
38385 34630 34682 1
38386 34631 34683 1
38387 34631 34684 1
38388 34632 34685 1
38389 34632 34686 1
38390 34640 34687 1
38391 34643 34688 1
38392 34649 34689 1
38393 34649 34690 1
38394 34650 34691 1
38395 34650 34692 1
38396 34651 34693 1
38397 34651 34694 1
38398 34652 34695 1
38399 34654 34696 1
38400 34655 34697 1
38401 34655 34698 1
38402 34658 34699 1
38403 34662 34700 1
38404 34664 34701 1
38405 34667 34702 1
38406 34668 34703 1
38407 34669 34704 1
38408 34670 34705 1
38409 34670 34706 1
38410 34670 34707 1
38411 34671 34708 1
38412 34672 34709 1
38413 34673 34710 1
38414 34673 34711 1
38415 34673 34712 1
38416 34674 34713 1
38417 34675 34714 1
38418 34676 34715 1
38419 34640 34716 1
38420 34643 34717 1
38421 34672 34718 1
38422 34719 34720 am
38423 34720 34721 am
38424 34721 34722 am
38425 34722 34723 am
38426 34723 34724 am
38427 34724 34719 am
38428 34725 34726 am
38429 34726 34727 1
38430 34721 34727 1
38431 34722 34725 1
38432 34728 34729 am
38433 34729 34730 am
38434 34730 34731 am
38435 34725 34731 am
38436 34726 34728 am
38437 34732 34733 1
38438 34733 34734 1
38439 34734 34735 1
38440 34730 34735 1
38441 34731 34732 1
38442 34736 34737 am
38443 34737 34738 am
38444 34729 34738 am
38445 34735 34736 am
38446 34739 34740 am
38447 34740 34741 am
38448 34728 34741 am
38449 34738 34739 am
38450 34742 34743 1
38451 34743 34744 am
38452 34744 34745 1
38453 34736 34745 1
38454 34737 34742 1
38455 34746 34747 am
38456 34747 34748 am
38457 34748 34749 am
38458 34743 34749 am
38459 34744 34746 am
38460 34750 34751 1
38461 34751 34752 1
38462 34752 34753 1
38463 34747 34753 1
38464 34748 34750 1
38465 34754 34755 am
38466 34755 34756 am
38467 34749 34754 am
38468 34750 34756 am
38469 34757 34758 1
38470 34758 34759 am
38471 34739 34759 am
38472 34740 34757 1
38473 34760 34761 am
38474 34761 34762 am
38475 34762 34763 am
38476 34758 34763 am
38477 34759 34760 am
38478 34764 34765 am
38479 34765 34766 am
38480 34766 34767 am
38481 34762 34767 am
38482 34763 34764 am
38483 34768 34769 am
38484 34769 34770 am
38485 34761 34770 am
38486 34767 34768 am
38487 34719 34771 1
38488 34724 34772 1
38489 34741 34773 1
38490 34765 34774 1
38491 34774 34775 1
38492 34755 34776 1
38493 34746 34777 1
38494 34768 34778 1
38495 34720 34779 1
38496 34723 34780 1
38497 34727 34781 1
38498 34727 34782 1
38499 34732 34783 1
38500 34732 34784 1
38501 34733 34785 1
38502 34733 34786 1
38503 34734 34787 1
38504 34734 34788 1
38505 34742 34789 1
38506 34745 34790 1
38507 34751 34791 1
38508 34751 34792 1
38509 34752 34793 1
38510 34752 34794 1
38511 34753 34795 1
38512 34753 34796 1
38513 34754 34797 1
38514 34756 34798 1
38515 34757 34799 1
38516 34757 34800 1
38517 34760 34801 1
38518 34764 34802 1
38519 34766 34803 1
38520 34769 34804 1
38521 34770 34805 1
38522 34771 34806 1
38523 34772 34807 1
38524 34772 34808 1
38525 34772 34809 1
38526 34773 34810 1
38527 34774 34811 1
38528 34775 34812 1
38529 34775 34813 1
38530 34775 34814 1
38531 34776 34815 1
38532 34777 34816 1
38533 34778 34817 1
38534 34742 34818 1
38535 34745 34819 1
38536 34774 34820 1
38537 34821 34822 am
38538 34822 34823 am
38539 34823 34824 am
38540 34824 34825 am
38541 34825 34826 am
38542 34826 34821 am
38543 34827 34828 am
38544 34828 34829 1
38545 34823 34829 1
38546 34824 34827 1
38547 34830 34831 am
38548 34831 34832 am
38549 34832 34833 am
38550 34827 34833 am
38551 34828 34830 am
38552 34834 34835 1
38553 34835 34836 1
38554 34836 34837 1
38555 34832 34837 1
38556 34833 34834 1
38557 34838 34839 am
38558 34839 34840 am
38559 34831 34840 am
38560 34837 34838 am
38561 34841 34842 am
38562 34842 34843 am
38563 34830 34843 am
38564 34840 34841 am
38565 34844 34845 1
38566 34845 34846 am
38567 34846 34847 1
38568 34838 34847 1
38569 34839 34844 1
38570 34848 34849 am
38571 34849 34850 am
38572 34850 34851 am
38573 34845 34851 am
38574 34846 34848 am
38575 34852 34853 1
38576 34853 34854 1
38577 34854 34855 1
38578 34849 34855 1
38579 34850 34852 1
38580 34856 34857 am
38581 34857 34858 am
38582 34851 34856 am
38583 34852 34858 am
38584 34859 34860 1
38585 34860 34861 am
38586 34841 34861 am
38587 34842 34859 1
38588 34862 34863 am
38589 34863 34864 am
38590 34864 34865 am
38591 34860 34865 am
38592 34861 34862 am
38593 34866 34867 am
38594 34867 34868 am
38595 34868 34869 am
38596 34864 34869 am
38597 34865 34866 am
38598 34870 34871 am
38599 34871 34872 am
38600 34863 34872 am
38601 34869 34870 am
38602 34821 34873 1
38603 34826 34874 1
38604 34843 34875 1
38605 34867 34876 1
38606 34876 34877 1
38607 34857 34878 1
38608 34848 34879 1
38609 34870 34880 1
38610 34822 34881 1
38611 34825 34882 1
38612 34829 34883 1
38613 34829 34884 1
38614 34834 34885 1
38615 34834 34886 1
38616 34835 34887 1
38617 34835 34888 1
38618 34836 34889 1
38619 34836 34890 1
38620 34844 34891 1
38621 34847 34892 1
38622 34853 34893 1
38623 34853 34894 1
38624 34854 34895 1
38625 34854 34896 1
38626 34855 34897 1
38627 34855 34898 1
38628 34856 34899 1
38629 34858 34900 1
38630 34859 34901 1
38631 34859 34902 1
38632 34862 34903 1
38633 34866 34904 1
38634 34868 34905 1
38635 34871 34906 1
38636 34872 34907 1
38637 34873 34908 1
38638 34874 34909 1
38639 34874 34910 1
38640 34874 34911 1
38641 34875 34912 1
38642 34876 34913 1
38643 34877 34914 1
38644 34877 34915 1
38645 34877 34916 1
38646 34878 34917 1
38647 34879 34918 1
38648 34880 34919 1
38649 34844 34920 1
38650 34847 34921 1
38651 34876 34922 1
38652 34923 34924 am
38653 34924 34925 am
38654 34925 34926 am
38655 34926 34927 am
38656 34927 34928 am
38657 34928 34923 am
38658 34929 34930 am
38659 34930 34931 1
38660 34925 34931 1
38661 34926 34929 1
38662 34932 34933 am
38663 34933 34934 am
38664 34934 34935 am
38665 34929 34935 am
38666 34930 34932 am
38667 34936 34937 1
38668 34937 34938 1
38669 34938 34939 1
38670 34934 34939 1
38671 34935 34936 1
38672 34940 34941 am
38673 34941 34942 am
38674 34933 34942 am
38675 34939 34940 am
38676 34943 34944 am
38677 34944 34945 am
38678 34932 34945 am
38679 34942 34943 am
38680 34946 34947 1
38681 34947 34948 am
38682 34948 34949 1
38683 34940 34949 1
38684 34941 34946 1
38685 34950 34951 am
38686 34951 34952 am
38687 34952 34953 am
38688 34947 34953 am
38689 34948 34950 am
38690 34954 34955 1
38691 34955 34956 1
38692 34956 34957 1
38693 34951 34957 1
38694 34952 34954 1
38695 34958 34959 am
38696 34959 34960 am
38697 34953 34958 am
38698 34954 34960 am
38699 34961 34962 1
38700 34962 34963 am
38701 34943 34963 am
38702 34944 34961 1
38703 34964 34965 am
38704 34965 34966 am
38705 34966 34967 am
38706 34962 34967 am
38707 34963 34964 am
38708 34968 34969 am
38709 34969 34970 am
38710 34970 34971 am
38711 34966 34971 am
38712 34967 34968 am
38713 34972 34973 am
38714 34973 34974 am
38715 34965 34974 am
38716 34971 34972 am
38717 34923 34975 1
38718 34928 34976 1
38719 34945 34977 1
38720 34969 34978 1
38721 34978 34979 1
38722 34959 34980 1
38723 34950 34981 1
38724 34972 34982 1
38725 34924 34983 1
38726 34927 34984 1
38727 34931 34985 1
38728 34931 34986 1
38729 34936 34987 1
38730 34936 34988 1
38731 34937 34989 1
38732 34937 34990 1
38733 34938 34991 1
38734 34938 34992 1
38735 34946 34993 1
38736 34949 34994 1
38737 34955 34995 1
38738 34955 34996 1
38739 34956 34997 1
38740 34956 34998 1
38741 34957 34999 1
38742 34957 35000 1
38743 34958 35001 1
38744 34960 35002 1
38745 34961 35003 1
38746 34961 35004 1
38747 34964 35005 1
38748 34968 35006 1
38749 34970 35007 1
38750 34973 35008 1
38751 34974 35009 1
38752 34975 35010 1
38753 34976 35011 1
38754 34976 35012 1
38755 34976 35013 1
38756 34977 35014 1
38757 34978 35015 1
38758 34979 35016 1
38759 34979 35017 1
38760 34979 35018 1
38761 34980 35019 1
38762 34981 35020 1
38763 34982 35021 1
38764 34946 35022 1
38765 34949 35023 1
38766 34978 35024 1
38767 35025 35026 am
38768 35026 35027 am
38769 35027 35028 am
38770 35028 35029 am
38771 35029 35030 am
38772 35030 35025 am
38773 35031 35032 am
38774 35032 35033 1
38775 35027 35033 1
38776 35028 35031 1
38777 35034 35035 am
38778 35035 35036 am
38779 35036 35037 am
38780 35031 35037 am
38781 35032 35034 am
38782 35038 35039 1
38783 35039 35040 1
38784 35040 35041 1
38785 35036 35041 1
38786 35037 35038 1
38787 35042 35043 am
38788 35043 35044 am
38789 35035 35044 am
38790 35041 35042 am
38791 35045 35046 am
38792 35046 35047 am
38793 35034 35047 am
38794 35044 35045 am
38795 35048 35049 1
38796 35049 35050 am
38797 35050 35051 1
38798 35042 35051 1
38799 35043 35048 1
38800 35052 35053 am
38801 35053 35054 am
38802 35054 35055 am
38803 35049 35055 am
38804 35050 35052 am
38805 35056 35057 1
38806 35057 35058 1
38807 35058 35059 1
38808 35053 35059 1
38809 35054 35056 1
38810 35060 35061 am
38811 35061 35062 am
38812 35055 35060 am
38813 35056 35062 am
38814 35063 35064 1
38815 35064 35065 am
38816 35045 35065 am
38817 35046 35063 1
38818 35066 35067 am
38819 35067 35068 am
38820 35068 35069 am
38821 35064 35069 am
38822 35065 35066 am
38823 35070 35071 am
38824 35071 35072 am
38825 35072 35073 am
38826 35068 35073 am
38827 35069 35070 am
38828 35074 35075 am
38829 35075 35076 am
38830 35067 35076 am
38831 35073 35074 am
38832 35025 35077 1
38833 35030 35078 1
38834 35047 35079 1
38835 35071 35080 1
38836 35080 35081 1
38837 35061 35082 1
38838 35052 35083 1
38839 35074 35084 1
38840 35026 35085 1
38841 35029 35086 1
38842 35033 35087 1
38843 35033 35088 1
38844 35038 35089 1
38845 35038 35090 1
38846 35039 35091 1
38847 35039 35092 1
38848 35040 35093 1
38849 35040 35094 1
38850 35048 35095 1
38851 35051 35096 1
38852 35057 35097 1
38853 35057 35098 1
38854 35058 35099 1
38855 35058 35100 1
38856 35059 35101 1
38857 35059 35102 1
38858 35060 35103 1
38859 35062 35104 1
38860 35063 35105 1
38861 35063 35106 1
38862 35066 35107 1
38863 35070 35108 1
38864 35072 35109 1
38865 35075 35110 1
38866 35076 35111 1
38867 35077 35112 1
38868 35078 35113 1
38869 35078 35114 1
38870 35078 35115 1
38871 35079 35116 1
38872 35080 35117 1
38873 35081 35118 1
38874 35081 35119 1
38875 35081 35120 1
38876 35082 35121 1
38877 35083 35122 1
38878 35084 35123 1
38879 35048 35124 1
38880 35051 35125 1
38881 35080 35126 1
38882 35127 35128 am
38883 35128 35129 am
38884 35129 35130 am
38885 35130 35131 am
38886 35131 35132 am
38887 35132 35127 am
38888 35133 35134 am
38889 35134 35135 1
38890 35129 35135 1
38891 35130 35133 1
38892 35136 35137 am
38893 35137 35138 am
38894 35138 35139 am
38895 35133 35139 am
38896 35134 35136 am
38897 35140 35141 1
38898 35141 35142 1
38899 35142 35143 1
38900 35138 35143 1
38901 35139 35140 1
38902 35144 35145 am
38903 35145 35146 am
38904 35137 35146 am
38905 35143 35144 am
38906 35147 35148 am
38907 35148 35149 am
38908 35136 35149 am
38909 35146 35147 am
38910 35150 35151 1
38911 35151 35152 am
38912 35152 35153 1
38913 35144 35153 1
38914 35145 35150 1
38915 35154 35155 am
38916 35155 35156 am
38917 35156 35157 am
38918 35151 35157 am
38919 35152 35154 am
38920 35158 35159 1
38921 35159 35160 1
38922 35160 35161 1
38923 35155 35161 1
38924 35156 35158 1
38925 35162 35163 am
38926 35163 35164 am
38927 35157 35162 am
38928 35158 35164 am
38929 35165 35166 1
38930 35166 35167 am
38931 35147 35167 am
38932 35148 35165 1
38933 35168 35169 am
38934 35169 35170 am
38935 35170 35171 am
38936 35166 35171 am
38937 35167 35168 am
38938 35172 35173 am
38939 35173 35174 am
38940 35174 35175 am
38941 35170 35175 am
38942 35171 35172 am
38943 35176 35177 am
38944 35177 35178 am
38945 35169 35178 am
38946 35175 35176 am
38947 35127 35179 1
38948 35132 35180 1
38949 35149 35181 1
38950 35173 35182 1
38951 35182 35183 1
38952 35163 35184 1
38953 35154 35185 1
38954 35176 35186 1
38955 35128 35187 1
38956 35131 35188 1
38957 35135 35189 1
38958 35135 35190 1
38959 35140 35191 1
38960 35140 35192 1
38961 35141 35193 1
38962 35141 35194 1
38963 35142 35195 1
38964 35142 35196 1
38965 35150 35197 1
38966 35153 35198 1
38967 35159 35199 1
38968 35159 35200 1
38969 35160 35201 1
38970 35160 35202 1
38971 35161 35203 1
38972 35161 35204 1
38973 35162 35205 1
38974 35164 35206 1
38975 35165 35207 1
38976 35165 35208 1
38977 35168 35209 1
38978 35172 35210 1
38979 35174 35211 1
38980 35177 35212 1
38981 35178 35213 1
38982 35179 35214 1
38983 35180 35215 1
38984 35180 35216 1
38985 35180 35217 1
38986 35181 35218 1
38987 35182 35219 1
38988 35183 35220 1
38989 35183 35221 1
38990 35183 35222 1
38991 35184 35223 1
38992 35185 35224 1
38993 35186 35225 1
38994 35150 35226 1
38995 35153 35227 1
38996 35182 35228 1
38997 35229 35230 am
38998 35230 35231 am
38999 35231 35232 am
39000 35232 35233 am
39001 35233 35234 am
39002 35234 35229 am
39003 35235 35236 am
39004 35236 35237 1
39005 35231 35237 1
39006 35232 35235 1
39007 35238 35239 am
39008 35239 35240 am
39009 35240 35241 am
39010 35235 35241 am
39011 35236 35238 am
39012 35242 35243 1
39013 35243 35244 1
39014 35244 35245 1
39015 35240 35245 1
39016 35241 35242 1
39017 35246 35247 am
39018 35247 35248 am
39019 35239 35248 am
39020 35245 35246 am
39021 35249 35250 am
39022 35250 35251 am
39023 35238 35251 am
39024 35248 35249 am
39025 35252 35253 1
39026 35253 35254 am
39027 35254 35255 1
39028 35246 35255 1
39029 35247 35252 1
39030 35256 35257 am
39031 35257 35258 am
39032 35258 35259 am
39033 35253 35259 am
39034 35254 35256 am
39035 35260 35261 1
39036 35261 35262 1
39037 35262 35263 1
39038 35257 35263 1
39039 35258 35260 1
39040 35264 35265 am
39041 35265 35266 am
39042 35259 35264 am
39043 35260 35266 am
39044 35267 35268 1
39045 35268 35269 am
39046 35249 35269 am
39047 35250 35267 1
39048 35270 35271 am
39049 35271 35272 am
39050 35272 35273 am
39051 35268 35273 am
39052 35269 35270 am
39053 35274 35275 am
39054 35275 35276 am
39055 35276 35277 am
39056 35272 35277 am
39057 35273 35274 am
39058 35278 35279 am
39059 35279 35280 am
39060 35271 35280 am
39061 35277 35278 am
39062 35229 35281 1
39063 35234 35282 1
39064 35251 35283 1
39065 35275 35284 1
39066 35284 35285 1
39067 35265 35286 1
39068 35256 35287 1
39069 35278 35288 1
39070 35230 35289 1
39071 35233 35290 1
39072 35237 35291 1
39073 35237 35292 1
39074 35242 35293 1
39075 35242 35294 1
39076 35243 35295 1
39077 35243 35296 1
39078 35244 35297 1
39079 35244 35298 1
39080 35252 35299 1
39081 35255 35300 1
39082 35261 35301 1
39083 35261 35302 1
39084 35262 35303 1
39085 35262 35304 1
39086 35263 35305 1
39087 35263 35306 1
39088 35264 35307 1
39089 35266 35308 1
39090 35267 35309 1
39091 35267 35310 1
39092 35270 35311 1
39093 35274 35312 1
39094 35276 35313 1
39095 35279 35314 1
39096 35280 35315 1
39097 35281 35316 1
39098 35282 35317 1
39099 35282 35318 1
39100 35282 35319 1
39101 35283 35320 1
39102 35284 35321 1
39103 35285 35322 1
39104 35285 35323 1
39105 35285 35324 1
39106 35286 35325 1
39107 35287 35326 1
39108 35288 35327 1
39109 35252 35328 1
39110 35255 35329 1
39111 35284 35330 1
39112 35331 35332 am
39113 35332 35333 am
39114 35333 35334 am
39115 35334 35335 am
39116 35335 35336 am
39117 35336 35331 am
39118 35337 35338 am
39119 35338 35339 1
39120 35333 35339 1
39121 35334 35337 1
39122 35340 35341 am
39123 35341 35342 am
39124 35342 35343 am
39125 35337 35343 am
39126 35338 35340 am
39127 35344 35345 1
39128 35345 35346 1
39129 35346 35347 1
39130 35342 35347 1
39131 35343 35344 1
39132 35348 35349 am
39133 35349 35350 am
39134 35341 35350 am
39135 35347 35348 am
39136 35351 35352 am
39137 35352 35353 am
39138 35340 35353 am
39139 35350 35351 am
39140 35354 35355 1
39141 35355 35356 am
39142 35356 35357 1
39143 35348 35357 1
39144 35349 35354 1
39145 35358 35359 am
39146 35359 35360 am
39147 35360 35361 am
39148 35355 35361 am
39149 35356 35358 am
39150 35362 35363 1
39151 35363 35364 1
39152 35364 35365 1
39153 35359 35365 1
39154 35360 35362 1
39155 35366 35367 am
39156 35367 35368 am
39157 35361 35366 am
39158 35362 35368 am
39159 35369 35370 1
39160 35370 35371 am
39161 35351 35371 am
39162 35352 35369 1
39163 35372 35373 am
39164 35373 35374 am
39165 35374 35375 am
39166 35370 35375 am
39167 35371 35372 am
39168 35376 35377 am
39169 35377 35378 am
39170 35378 35379 am
39171 35374 35379 am
39172 35375 35376 am
39173 35380 35381 am
39174 35381 35382 am
39175 35373 35382 am
39176 35379 35380 am
39177 35331 35383 1
39178 35336 35384 1
39179 35353 35385 1
39180 35377 35386 1
39181 35386 35387 1
39182 35367 35388 1
39183 35358 35389 1
39184 35380 35390 1
39185 35332 35391 1
39186 35335 35392 1
39187 35339 35393 1
39188 35339 35394 1
39189 35344 35395 1
39190 35344 35396 1
39191 35345 35397 1
39192 35345 35398 1
39193 35346 35399 1
39194 35346 35400 1
39195 35354 35401 1
39196 35357 35402 1
39197 35363 35403 1
39198 35363 35404 1
39199 35364 35405 1
39200 35364 35406 1
39201 35365 35407 1
39202 35365 35408 1
39203 35366 35409 1
39204 35368 35410 1
39205 35369 35411 1
39206 35369 35412 1
39207 35372 35413 1
39208 35376 35414 1
39209 35378 35415 1
39210 35381 35416 1
39211 35382 35417 1
39212 35383 35418 1
39213 35384 35419 1
39214 35384 35420 1
39215 35384 35421 1
39216 35385 35422 1
39217 35386 35423 1
39218 35387 35424 1
39219 35387 35425 1
39220 35387 35426 1
39221 35388 35427 1
39222 35389 35428 1
39223 35390 35429 1
39224 35354 35430 1
39225 35357 35431 1
39226 35386 35432 1
39227 35433 35434 am
39228 35434 35435 am
39229 35435 35436 am
39230 35436 35437 am
39231 35437 35438 am
39232 35438 35433 am
39233 35439 35440 am
39234 35440 35441 1
39235 35435 35441 1
39236 35436 35439 1
39237 35442 35443 am
39238 35443 35444 am
39239 35444 35445 am
39240 35439 35445 am
39241 35440 35442 am
39242 35446 35447 1
39243 35447 35448 1
39244 35448 35449 1
39245 35444 35449 1
39246 35445 35446 1
39247 35450 35451 am
39248 35451 35452 am
39249 35443 35452 am
39250 35449 35450 am
39251 35453 35454 am
39252 35454 35455 am
39253 35442 35455 am
39254 35452 35453 am
39255 35456 35457 1
39256 35457 35458 am
39257 35458 35459 1
39258 35450 35459 1
39259 35451 35456 1
39260 35460 35461 am
39261 35461 35462 am
39262 35462 35463 am
39263 35457 35463 am
39264 35458 35460 am
39265 35464 35465 1
39266 35465 35466 1
39267 35466 35467 1
39268 35461 35467 1
39269 35462 35464 1
39270 35468 35469 am
39271 35469 35470 am
39272 35463 35468 am
39273 35464 35470 am
39274 35471 35472 1
39275 35472 35473 am
39276 35453 35473 am
39277 35454 35471 1
39278 35474 35475 am
39279 35475 35476 am
39280 35476 35477 am
39281 35472 35477 am
39282 35473 35474 am
39283 35478 35479 am
39284 35479 35480 am
39285 35480 35481 am
39286 35476 35481 am
39287 35477 35478 am
39288 35482 35483 am
39289 35483 35484 am
39290 35475 35484 am
39291 35481 35482 am
39292 35433 35485 1
39293 35438 35486 1
39294 35455 35487 1
39295 35479 35488 1
39296 35488 35489 1
39297 35469 35490 1
39298 35460 35491 1
39299 35482 35492 1
39300 35434 35493 1
39301 35437 35494 1
39302 35441 35495 1
39303 35441 35496 1
39304 35446 35497 1
39305 35446 35498 1
39306 35447 35499 1
39307 35447 35500 1
39308 35448 35501 1
39309 35448 35502 1
39310 35456 35503 1
39311 35459 35504 1
39312 35465 35505 1
39313 35465 35506 1
39314 35466 35507 1
39315 35466 35508 1
39316 35467 35509 1
39317 35467 35510 1
39318 35468 35511 1
39319 35470 35512 1
39320 35471 35513 1
39321 35471 35514 1
39322 35474 35515 1
39323 35478 35516 1
39324 35480 35517 1
39325 35483 35518 1
39326 35484 35519 1
39327 35485 35520 1
39328 35486 35521 1
39329 35486 35522 1
39330 35486 35523 1
39331 35487 35524 1
39332 35488 35525 1
39333 35489 35526 1
39334 35489 35527 1
39335 35489 35528 1
39336 35490 35529 1
39337 35491 35530 1
39338 35492 35531 1
39339 35456 35532 1
39340 35459 35533 1
39341 35488 35534 1
39342 35535 35536 am
39343 35536 35537 am
39344 35537 35538 am
39345 35538 35539 am
39346 35539 35540 am
39347 35540 35535 am
39348 35541 35542 am
39349 35542 35543 1
39350 35537 35543 1
39351 35538 35541 1
39352 35544 35545 am
39353 35545 35546 am
39354 35546 35547 am
39355 35541 35547 am
39356 35542 35544 am
39357 35548 35549 1
39358 35549 35550 1
39359 35550 35551 1
39360 35546 35551 1
39361 35547 35548 1
39362 35552 35553 am
39363 35553 35554 am
39364 35545 35554 am
39365 35551 35552 am
39366 35555 35556 am
39367 35556 35557 am
39368 35544 35557 am
39369 35554 35555 am
39370 35558 35559 1
39371 35559 35560 am
39372 35560 35561 1
39373 35552 35561 1
39374 35553 35558 1
39375 35562 35563 am
39376 35563 35564 am
39377 35564 35565 am
39378 35559 35565 am
39379 35560 35562 am
39380 35566 35567 1
39381 35567 35568 1
39382 35568 35569 1
39383 35563 35569 1
39384 35564 35566 1
39385 35570 35571 am
39386 35571 35572 am
39387 35565 35570 am
39388 35566 35572 am
39389 35573 35574 1
39390 35574 35575 am
39391 35555 35575 am
39392 35556 35573 1
39393 35576 35577 am
39394 35577 35578 am
39395 35578 35579 am
39396 35574 35579 am
39397 35575 35576 am
39398 35580 35581 am
39399 35581 35582 am
39400 35582 35583 am
39401 35578 35583 am
39402 35579 35580 am
39403 35584 35585 am
39404 35585 35586 am
39405 35577 35586 am
39406 35583 35584 am
39407 35535 35587 1
39408 35540 35588 1
39409 35557 35589 1
39410 35581 35590 1
39411 35590 35591 1
39412 35571 35592 1
39413 35562 35593 1
39414 35584 35594 1
39415 35536 35595 1
39416 35539 35596 1
39417 35543 35597 1
39418 35543 35598 1
39419 35548 35599 1
39420 35548 35600 1
39421 35549 35601 1
39422 35549 35602 1
39423 35550 35603 1
39424 35550 35604 1
39425 35558 35605 1
39426 35561 35606 1
39427 35567 35607 1
39428 35567 35608 1
39429 35568 35609 1
39430 35568 35610 1
39431 35569 35611 1
39432 35569 35612 1
39433 35570 35613 1
39434 35572 35614 1
39435 35573 35615 1
39436 35573 35616 1
39437 35576 35617 1
39438 35580 35618 1
39439 35582 35619 1
39440 35585 35620 1
39441 35586 35621 1
39442 35587 35622 1
39443 35588 35623 1
39444 35588 35624 1
39445 35588 35625 1
39446 35589 35626 1
39447 35590 35627 1
39448 35591 35628 1
39449 35591 35629 1
39450 35591 35630 1
39451 35592 35631 1
39452 35593 35632 1
39453 35594 35633 1
39454 35558 35634 1
39455 35561 35635 1
39456 35590 35636 1
39457 35637 35638 am
39458 35638 35639 am
39459 35639 35640 am
39460 35640 35641 am
39461 35641 35642 am
39462 35642 35637 am
39463 35643 35644 am
39464 35644 35645 1
39465 35639 35645 1
39466 35640 35643 1
39467 35646 35647 am
39468 35647 35648 am
39469 35648 35649 am
39470 35643 35649 am
39471 35644 35646 am
39472 35650 35651 1
39473 35651 35652 1
39474 35652 35653 1
39475 35648 35653 1
39476 35649 35650 1
39477 35654 35655 am
39478 35655 35656 am
39479 35647 35656 am
39480 35653 35654 am
39481 35657 35658 am
39482 35658 35659 am
39483 35646 35659 am
39484 35656 35657 am
39485 35660 35661 1
39486 35661 35662 am
39487 35662 35663 1
39488 35654 35663 1
39489 35655 35660 1
39490 35664 35665 am
39491 35665 35666 am
39492 35666 35667 am
39493 35661 35667 am
39494 35662 35664 am
39495 35668 35669 1
39496 35669 35670 1
39497 35670 35671 1
39498 35665 35671 1
39499 35666 35668 1
39500 35672 35673 am
39501 35673 35674 am
39502 35667 35672 am
39503 35668 35674 am
39504 35675 35676 1
39505 35676 35677 am
39506 35657 35677 am
39507 35658 35675 1
39508 35678 35679 am
39509 35679 35680 am
39510 35680 35681 am
39511 35676 35681 am
39512 35677 35678 am
39513 35682 35683 am
39514 35683 35684 am
39515 35684 35685 am
39516 35680 35685 am
39517 35681 35682 am
39518 35686 35687 am
39519 35687 35688 am
39520 35679 35688 am
39521 35685 35686 am
39522 35637 35689 1
39523 35642 35690 1
39524 35659 35691 1
39525 35683 35692 1
39526 35692 35693 1
39527 35673 35694 1
39528 35664 35695 1
39529 35686 35696 1
39530 35638 35697 1
39531 35641 35698 1
39532 35645 35699 1
39533 35645 35700 1
39534 35650 35701 1
39535 35650 35702 1
39536 35651 35703 1
39537 35651 35704 1
39538 35652 35705 1
39539 35652 35706 1
39540 35660 35707 1
39541 35663 35708 1
39542 35669 35709 1
39543 35669 35710 1
39544 35670 35711 1
39545 35670 35712 1
39546 35671 35713 1
39547 35671 35714 1
39548 35672 35715 1
39549 35674 35716 1
39550 35675 35717 1
39551 35675 35718 1
39552 35678 35719 1
39553 35682 35720 1
39554 35684 35721 1
39555 35687 35722 1
39556 35688 35723 1
39557 35689 35724 1
39558 35690 35725 1
39559 35690 35726 1
39560 35690 35727 1
39561 35691 35728 1
39562 35692 35729 1
39563 35693 35730 1
39564 35693 35731 1
39565 35693 35732 1
39566 35694 35733 1
39567 35695 35734 1
39568 35696 35735 1
39569 35660 35736 1
39570 35663 35737 1
39571 35692 35738 1
39572 35739 35740 am
39573 35740 35741 am
39574 35741 35742 am
39575 35742 35743 am
39576 35743 35744 am
39577 35744 35739 am
39578 35745 35746 am
39579 35746 35747 1
39580 35741 35747 1
39581 35742 35745 1
39582 35748 35749 am
39583 35749 35750 am
39584 35750 35751 am
39585 35745 35751 am
39586 35746 35748 am
39587 35752 35753 1
39588 35753 35754 1
39589 35754 35755 1
39590 35750 35755 1
39591 35751 35752 1
39592 35756 35757 am
39593 35757 35758 am
39594 35749 35758 am
39595 35755 35756 am
39596 35759 35760 am
39597 35760 35761 am
39598 35748 35761 am
39599 35758 35759 am
39600 35762 35763 1
39601 35763 35764 am
39602 35764 35765 1
39603 35756 35765 1
39604 35757 35762 1
39605 35766 35767 am
39606 35767 35768 am
39607 35768 35769 am
39608 35763 35769 am
39609 35764 35766 am
39610 35770 35771 1
39611 35771 35772 1
39612 35772 35773 1
39613 35767 35773 1
39614 35768 35770 1
39615 35774 35775 am
39616 35775 35776 am
39617 35769 35774 am
39618 35770 35776 am
39619 35777 35778 1
39620 35778 35779 am
39621 35759 35779 am
39622 35760 35777 1
39623 35780 35781 am
39624 35781 35782 am
39625 35782 35783 am
39626 35778 35783 am
39627 35779 35780 am
39628 35784 35785 am
39629 35785 35786 am
39630 35786 35787 am
39631 35782 35787 am
39632 35783 35784 am
39633 35788 35789 am
39634 35789 35790 am
39635 35781 35790 am
39636 35787 35788 am
39637 35739 35791 1
39638 35744 35792 1
39639 35761 35793 1
39640 35785 35794 1
39641 35794 35795 1
39642 35775 35796 1
39643 35766 35797 1
39644 35788 35798 1
39645 35740 35799 1
39646 35743 35800 1
39647 35747 35801 1
39648 35747 35802 1
39649 35752 35803 1
39650 35752 35804 1
39651 35753 35805 1
39652 35753 35806 1
39653 35754 35807 1
39654 35754 35808 1
39655 35762 35809 1
39656 35765 35810 1
39657 35771 35811 1
39658 35771 35812 1
39659 35772 35813 1
39660 35772 35814 1
39661 35773 35815 1
39662 35773 35816 1
39663 35774 35817 1
39664 35776 35818 1
39665 35777 35819 1
39666 35777 35820 1
39667 35780 35821 1
39668 35784 35822 1
39669 35786 35823 1
39670 35789 35824 1
39671 35790 35825 1
39672 35791 35826 1
39673 35792 35827 1
39674 35792 35828 1
39675 35792 35829 1
39676 35793 35830 1
39677 35794 35831 1
39678 35795 35832 1
39679 35795 35833 1
39680 35795 35834 1
39681 35796 35835 1
39682 35797 35836 1
39683 35798 35837 1
39684 35762 35838 1
39685 35765 35839 1
39686 35794 35840 1
39687 35841 35842 am
39688 35842 35843 am
39689 35843 35844 am
39690 35844 35845 am
39691 35845 35846 am
39692 35846 35841 am
39693 35847 35848 am
39694 35848 35849 1
39695 35843 35849 1
39696 35844 35847 1
39697 35850 35851 am
39698 35851 35852 am
39699 35852 35853 am
39700 35847 35853 am
39701 35848 35850 am
39702 35854 35855 1
39703 35855 35856 1
39704 35856 35857 1
39705 35852 35857 1
39706 35853 35854 1
39707 35858 35859 am
39708 35859 35860 am
39709 35851 35860 am
39710 35857 35858 am
39711 35861 35862 am
39712 35862 35863 am
39713 35850 35863 am
39714 35860 35861 am
39715 35864 35865 1
39716 35865 35866 am
39717 35866 35867 1
39718 35858 35867 1
39719 35859 35864 1
39720 35868 35869 am
39721 35869 35870 am
39722 35870 35871 am
39723 35865 35871 am
39724 35866 35868 am
39725 35872 35873 1
39726 35873 35874 1
39727 35874 35875 1
39728 35869 35875 1
39729 35870 35872 1
39730 35876 35877 am
39731 35877 35878 am
39732 35871 35876 am
39733 35872 35878 am
39734 35879 35880 1
39735 35880 35881 am
39736 35861 35881 am
39737 35862 35879 1
39738 35882 35883 am
39739 35883 35884 am
39740 35884 35885 am
39741 35880 35885 am
39742 35881 35882 am
39743 35886 35887 am
39744 35887 35888 am
39745 35888 35889 am
39746 35884 35889 am
39747 35885 35886 am
39748 35890 35891 am
39749 35891 35892 am
39750 35883 35892 am
39751 35889 35890 am
39752 35841 35893 1
39753 35846 35894 1
39754 35863 35895 1
39755 35887 35896 1
39756 35896 35897 1
39757 35877 35898 1
39758 35868 35899 1
39759 35890 35900 1
39760 35842 35901 1
39761 35845 35902 1
39762 35849 35903 1
39763 35849 35904 1
39764 35854 35905 1
39765 35854 35906 1
39766 35855 35907 1
39767 35855 35908 1
39768 35856 35909 1
39769 35856 35910 1
39770 35864 35911 1
39771 35867 35912 1
39772 35873 35913 1
39773 35873 35914 1
39774 35874 35915 1
39775 35874 35916 1
39776 35875 35917 1
39777 35875 35918 1
39778 35876 35919 1
39779 35878 35920 1
39780 35879 35921 1
39781 35879 35922 1
39782 35882 35923 1
39783 35886 35924 1
39784 35888 35925 1
39785 35891 35926 1
39786 35892 35927 1
39787 35893 35928 1
39788 35894 35929 1
39789 35894 35930 1
39790 35894 35931 1
39791 35895 35932 1
39792 35896 35933 1
39793 35897 35934 1
39794 35897 35935 1
39795 35897 35936 1
39796 35898 35937 1
39797 35899 35938 1
39798 35900 35939 1
39799 35864 35940 1
39800 35867 35941 1
39801 35896 35942 1
39802 35943 35944 am
39803 35944 35945 am
39804 35945 35946 am
39805 35946 35947 am
39806 35947 35948 am
39807 35948 35943 am
39808 35949 35950 am
39809 35950 35951 1
39810 35945 35951 1
39811 35946 35949 1
39812 35952 35953 am
39813 35953 35954 am
39814 35954 35955 am
39815 35949 35955 am
39816 35950 35952 am
39817 35956 35957 1
39818 35957 35958 1
39819 35958 35959 1
39820 35954 35959 1
39821 35955 35956 1
39822 35960 35961 am
39823 35961 35962 am
39824 35953 35962 am
39825 35959 35960 am
39826 35963 35964 am
39827 35964 35965 am
39828 35952 35965 am
39829 35962 35963 am
39830 35966 35967 1
39831 35967 35968 am
39832 35968 35969 1
39833 35960 35969 1
39834 35961 35966 1
39835 35970 35971 am
39836 35971 35972 am
39837 35972 35973 am
39838 35967 35973 am
39839 35968 35970 am
39840 35974 35975 1
39841 35975 35976 1
39842 35976 35977 1
39843 35971 35977 1
39844 35972 35974 1
39845 35978 35979 am
39846 35979 35980 am
39847 35973 35978 am
39848 35974 35980 am
39849 35981 35982 1
39850 35982 35983 am
39851 35963 35983 am
39852 35964 35981 1
39853 35984 35985 am
39854 35985 35986 am
39855 35986 35987 am
39856 35982 35987 am
39857 35983 35984 am
39858 35988 35989 am
39859 35989 35990 am
39860 35990 35991 am
39861 35986 35991 am
39862 35987 35988 am
39863 35992 35993 am
39864 35993 35994 am
39865 35985 35994 am
39866 35991 35992 am
39867 35943 35995 1
39868 35948 35996 1
39869 35965 35997 1
39870 35989 35998 1
39871 35998 35999 1
39872 35979 36000 1
39873 35970 36001 1
39874 35992 36002 1
39875 35944 36003 1
39876 35947 36004 1
39877 35951 36005 1
39878 35951 36006 1
39879 35956 36007 1
39880 35956 36008 1
39881 35957 36009 1
39882 35957 36010 1
39883 35958 36011 1
39884 35958 36012 1
39885 35966 36013 1
39886 35969 36014 1
39887 35975 36015 1
39888 35975 36016 1
39889 35976 36017 1
39890 35976 36018 1
39891 35977 36019 1
39892 35977 36020 1
39893 35978 36021 1
39894 35980 36022 1
39895 35981 36023 1
39896 35981 36024 1
39897 35984 36025 1
39898 35988 36026 1
39899 35990 36027 1
39900 35993 36028 1
39901 35994 36029 1
39902 35995 36030 1
39903 35996 36031 1
39904 35996 36032 1
39905 35996 36033 1
39906 35997 36034 1
39907 35998 36035 1
39908 35999 36036 1
39909 35999 36037 1
39910 35999 36038 1
39911 36000 36039 1
39912 36001 36040 1
39913 36002 36041 1
39914 35966 36042 1
39915 35969 36043 1
39916 35998 36044 1
39917 36045 36046 am
39918 36046 36047 am
39919 36047 36048 am
39920 36048 36049 am
39921 36049 36050 am
39922 36050 36045 am
39923 36051 36052 am
39924 36052 36053 1
39925 36047 36053 1
39926 36048 36051 1
39927 36054 36055 am
39928 36055 36056 am
39929 36056 36057 am
39930 36051 36057 am
39931 36052 36054 am
39932 36058 36059 1
39933 36059 36060 1
39934 36060 36061 1
39935 36056 36061 1
39936 36057 36058 1
39937 36062 36063 am
39938 36063 36064 am
39939 36055 36064 am
39940 36061 36062 am
39941 36065 36066 am
39942 36066 36067 am
39943 36054 36067 am
39944 36064 36065 am
39945 36068 36069 1
39946 36069 36070 am
39947 36070 36071 1
39948 36062 36071 1
39949 36063 36068 1
39950 36072 36073 am
39951 36073 36074 am
39952 36074 36075 am
39953 36069 36075 am
39954 36070 36072 am
39955 36076 36077 1
39956 36077 36078 1
39957 36078 36079 1
39958 36073 36079 1
39959 36074 36076 1
39960 36080 36081 am
39961 36081 36082 am
39962 36075 36080 am
39963 36076 36082 am
39964 36083 36084 1
39965 36084 36085 am
39966 36065 36085 am
39967 36066 36083 1
39968 36086 36087 am
39969 36087 36088 am
39970 36088 36089 am
39971 36084 36089 am
39972 36085 36086 am
39973 36090 36091 am
39974 36091 36092 am
39975 36092 36093 am
39976 36088 36093 am
39977 36089 36090 am
39978 36094 36095 am
39979 36095 36096 am
39980 36087 36096 am
39981 36093 36094 am
39982 36045 36097 1
39983 36050 36098 1
39984 36067 36099 1
39985 36091 36100 1
39986 36100 36101 1
39987 36081 36102 1
39988 36072 36103 1
39989 36094 36104 1
39990 36046 36105 1
39991 36049 36106 1
39992 36053 36107 1
39993 36053 36108 1
39994 36058 36109 1
39995 36058 36110 1
39996 36059 36111 1
39997 36059 36112 1
39998 36060 36113 1
39999 36060 36114 1
40000 36068 36115 1
40001 36071 36116 1
40002 36077 36117 1
40003 36077 36118 1
40004 36078 36119 1
40005 36078 36120 1
40006 36079 36121 1
40007 36079 36122 1
40008 36080 36123 1
40009 36082 36124 1
40010 36083 36125 1
40011 36083 36126 1
40012 36086 36127 1
40013 36090 36128 1
40014 36092 36129 1
40015 36095 36130 1
40016 36096 36131 1
40017 36097 36132 1
40018 36098 36133 1
40019 36098 36134 1
40020 36098 36135 1
40021 36099 36136 1
40022 36100 36137 1
40023 36101 36138 1
40024 36101 36139 1
40025 36101 36140 1
40026 36102 36141 1
40027 36103 36142 1
40028 36104 36143 1
40029 36068 36144 1
40030 36071 36145 1
40031 36100 36146 1
40032 36147 36148 am
40033 36148 36149 am
40034 36149 36150 am
40035 36150 36151 am
40036 36151 36152 am
40037 36152 36147 am
40038 36153 36154 am
40039 36154 36155 1
40040 36149 36155 1
40041 36150 36153 1
40042 36156 36157 am
40043 36157 36158 am
40044 36158 36159 am
40045 36153 36159 am
40046 36154 36156 am
40047 36160 36161 1
40048 36161 36162 1
40049 36162 36163 1
40050 36158 36163 1
40051 36159 36160 1
40052 36164 36165 am
40053 36165 36166 am
40054 36157 36166 am
40055 36163 36164 am
40056 36167 36168 am
40057 36168 36169 am
40058 36156 36169 am
40059 36166 36167 am
40060 36170 36171 1
40061 36171 36172 am
40062 36172 36173 1
40063 36164 36173 1
40064 36165 36170 1
40065 36174 36175 am
40066 36175 36176 am
40067 36176 36177 am
40068 36171 36177 am
40069 36172 36174 am
40070 36178 36179 1
40071 36179 36180 1
40072 36180 36181 1
40073 36175 36181 1
40074 36176 36178 1
40075 36182 36183 am
40076 36183 36184 am
40077 36177 36182 am
40078 36178 36184 am
40079 36185 36186 1
40080 36186 36187 am
40081 36167 36187 am
40082 36168 36185 1
40083 36188 36189 am
40084 36189 36190 am
40085 36190 36191 am
40086 36186 36191 am
40087 36187 36188 am
40088 36192 36193 am
40089 36193 36194 am
40090 36194 36195 am
40091 36190 36195 am
40092 36191 36192 am
40093 36196 36197 am
40094 36197 36198 am
40095 36189 36198 am
40096 36195 36196 am
40097 36147 36199 1
40098 36152 36200 1
40099 36169 36201 1
40100 36193 36202 1
40101 36202 36203 1
40102 36183 36204 1
40103 36174 36205 1
40104 36196 36206 1
40105 36148 36207 1
40106 36151 36208 1
40107 36155 36209 1
40108 36155 36210 1
40109 36160 36211 1
40110 36160 36212 1
40111 36161 36213 1
40112 36161 36214 1
40113 36162 36215 1
40114 36162 36216 1
40115 36170 36217 1
40116 36173 36218 1
40117 36179 36219 1
40118 36179 36220 1
40119 36180 36221 1
40120 36180 36222 1
40121 36181 36223 1
40122 36181 36224 1
40123 36182 36225 1
40124 36184 36226 1
40125 36185 36227 1
40126 36185 36228 1
40127 36188 36229 1
40128 36192 36230 1
40129 36194 36231 1
40130 36197 36232 1
40131 36198 36233 1
40132 36199 36234 1
40133 36200 36235 1
40134 36200 36236 1
40135 36200 36237 1
40136 36201 36238 1
40137 36202 36239 1
40138 36203 36240 1
40139 36203 36241 1
40140 36203 36242 1
40141 36204 36243 1
40142 36205 36244 1
40143 36206 36245 1
40144 36170 36246 1
40145 36173 36247 1
40146 36202 36248 1
40147 36249 36250 am
40148 36250 36251 am
40149 36251 36252 am
40150 36252 36253 am
40151 36253 36254 am
40152 36254 36249 am
40153 36255 36256 am
40154 36256 36257 1
40155 36251 36257 1
40156 36252 36255 1
40157 36258 36259 am
40158 36259 36260 am
40159 36260 36261 am
40160 36255 36261 am
40161 36256 36258 am
40162 36262 36263 1
40163 36263 36264 1
40164 36264 36265 1
40165 36260 36265 1
40166 36261 36262 1
40167 36266 36267 am
40168 36267 36268 am
40169 36259 36268 am
40170 36265 36266 am
40171 36269 36270 am
40172 36270 36271 am
40173 36258 36271 am
40174 36268 36269 am
40175 36272 36273 1
40176 36273 36274 am
40177 36274 36275 1
40178 36266 36275 1
40179 36267 36272 1
40180 36276 36277 am
40181 36277 36278 am
40182 36278 36279 am
40183 36273 36279 am
40184 36274 36276 am
40185 36280 36281 1
40186 36281 36282 1
40187 36282 36283 1
40188 36277 36283 1
40189 36278 36280 1
40190 36284 36285 am
40191 36285 36286 am
40192 36279 36284 am
40193 36280 36286 am
40194 36287 36288 1
40195 36288 36289 am
40196 36269 36289 am
40197 36270 36287 1
40198 36290 36291 am
40199 36291 36292 am
40200 36292 36293 am
40201 36288 36293 am
40202 36289 36290 am
40203 36294 36295 am
40204 36295 36296 am
40205 36296 36297 am
40206 36292 36297 am
40207 36293 36294 am
40208 36298 36299 am
40209 36299 36300 am
40210 36291 36300 am
40211 36297 36298 am
40212 36249 36301 1
40213 36254 36302 1
40214 36271 36303 1
40215 36295 36304 1
40216 36304 36305 1
40217 36285 36306 1
40218 36276 36307 1
40219 36298 36308 1
40220 36250 36309 1
40221 36253 36310 1
40222 36257 36311 1
40223 36257 36312 1
40224 36262 36313 1
40225 36262 36314 1
40226 36263 36315 1
40227 36263 36316 1
40228 36264 36317 1
40229 36264 36318 1
40230 36272 36319 1
40231 36275 36320 1
40232 36281 36321 1
40233 36281 36322 1
40234 36282 36323 1
40235 36282 36324 1
40236 36283 36325 1
40237 36283 36326 1
40238 36284 36327 1
40239 36286 36328 1
40240 36287 36329 1
40241 36287 36330 1
40242 36290 36331 1
40243 36294 36332 1
40244 36296 36333 1
40245 36299 36334 1
40246 36300 36335 1
40247 36301 36336 1
40248 36302 36337 1
40249 36302 36338 1
40250 36302 36339 1
40251 36303 36340 1
40252 36304 36341 1
40253 36305 36342 1
40254 36305 36343 1
40255 36305 36344 1
40256 36306 36345 1
40257 36307 36346 1
40258 36308 36347 1
40259 36272 36348 1
40260 36275 36349 1
40261 36304 36350 1
40262 36351 36352 am
40263 36352 36353 am
40264 36353 36354 am
40265 36354 36355 am
40266 36355 36356 am
40267 36356 36351 am
40268 36357 36358 am
40269 36358 36359 1
40270 36353 36359 1
40271 36354 36357 1
40272 36360 36361 am
40273 36361 36362 am
40274 36362 36363 am
40275 36357 36363 am
40276 36358 36360 am
40277 36364 36365 1
40278 36365 36366 1
40279 36366 36367 1
40280 36362 36367 1
40281 36363 36364 1
40282 36368 36369 am
40283 36369 36370 am
40284 36361 36370 am
40285 36367 36368 am
40286 36371 36372 am
40287 36372 36373 am
40288 36360 36373 am
40289 36370 36371 am
40290 36374 36375 1
40291 36375 36376 am
40292 36376 36377 1
40293 36368 36377 1
40294 36369 36374 1
40295 36378 36379 am
40296 36379 36380 am
40297 36380 36381 am
40298 36375 36381 am
40299 36376 36378 am
40300 36382 36383 1
40301 36383 36384 1
40302 36384 36385 1
40303 36379 36385 1
40304 36380 36382 1
40305 36386 36387 am
40306 36387 36388 am
40307 36381 36386 am
40308 36382 36388 am
40309 36389 36390 1
40310 36390 36391 am
40311 36371 36391 am
40312 36372 36389 1
40313 36392 36393 am
40314 36393 36394 am
40315 36394 36395 am
40316 36390 36395 am
40317 36391 36392 am
40318 36396 36397 am
40319 36397 36398 am
40320 36398 36399 am
40321 36394 36399 am
40322 36395 36396 am
40323 36400 36401 am
40324 36401 36402 am
40325 36393 36402 am
40326 36399 36400 am
40327 36351 36403 1
40328 36356 36404 1
40329 36373 36405 1
40330 36397 36406 1
40331 36406 36407 1
40332 36387 36408 1
40333 36378 36409 1
40334 36400 36410 1
40335 36352 36411 1
40336 36355 36412 1
40337 36359 36413 1
40338 36359 36414 1
40339 36364 36415 1
40340 36364 36416 1
40341 36365 36417 1
40342 36365 36418 1
40343 36366 36419 1
40344 36366 36420 1
40345 36374 36421 1
40346 36377 36422 1
40347 36383 36423 1
40348 36383 36424 1
40349 36384 36425 1
40350 36384 36426 1
40351 36385 36427 1
40352 36385 36428 1
40353 36386 36429 1
40354 36388 36430 1
40355 36389 36431 1
40356 36389 36432 1
40357 36392 36433 1
40358 36396 36434 1
40359 36398 36435 1
40360 36401 36436 1
40361 36402 36437 1
40362 36403 36438 1
40363 36404 36439 1
40364 36404 36440 1
40365 36404 36441 1
40366 36405 36442 1
40367 36406 36443 1
40368 36407 36444 1
40369 36407 36445 1
40370 36407 36446 1
40371 36408 36447 1
40372 36409 36448 1
40373 36410 36449 1
40374 36374 36450 1
40375 36377 36451 1
40376 36406 36452 1
40377 36453 36454 am
40378 36454 36455 am
40379 36455 36456 am
40380 36456 36457 am
40381 36457 36458 am
40382 36458 36453 am
40383 36459 36460 am
40384 36460 36461 1
40385 36455 36461 1
40386 36456 36459 1
40387 36462 36463 am
40388 36463 36464 am
40389 36464 36465 am
40390 36459 36465 am
40391 36460 36462 am
40392 36466 36467 1
40393 36467 36468 1
40394 36468 36469 1
40395 36464 36469 1
40396 36465 36466 1
40397 36470 36471 am
40398 36471 36472 am
40399 36463 36472 am
40400 36469 36470 am
40401 36473 36474 am
40402 36474 36475 am
40403 36462 36475 am
40404 36472 36473 am
40405 36476 36477 1
40406 36477 36478 am
40407 36478 36479 1
40408 36470 36479 1
40409 36471 36476 1
40410 36480 36481 am
40411 36481 36482 am
40412 36482 36483 am
40413 36477 36483 am
40414 36478 36480 am
40415 36484 36485 1
40416 36485 36486 1
40417 36486 36487 1
40418 36481 36487 1
40419 36482 36484 1
40420 36488 36489 am
40421 36489 36490 am
40422 36483 36488 am
40423 36484 36490 am
40424 36491 36492 1
40425 36492 36493 am
40426 36473 36493 am
40427 36474 36491 1
40428 36494 36495 am
40429 36495 36496 am
40430 36496 36497 am
40431 36492 36497 am
40432 36493 36494 am
40433 36498 36499 am
40434 36499 36500 am
40435 36500 36501 am
40436 36496 36501 am
40437 36497 36498 am
40438 36502 36503 am
40439 36503 36504 am
40440 36495 36504 am
40441 36501 36502 am
40442 36453 36505 1
40443 36458 36506 1
40444 36475 36507 1
40445 36499 36508 1
40446 36508 36509 1
40447 36489 36510 1
40448 36480 36511 1
40449 36502 36512 1
40450 36454 36513 1
40451 36457 36514 1
40452 36461 36515 1
40453 36461 36516 1
40454 36466 36517 1
40455 36466 36518 1
40456 36467 36519 1
40457 36467 36520 1
40458 36468 36521 1
40459 36468 36522 1
40460 36476 36523 1
40461 36479 36524 1
40462 36485 36525 1
40463 36485 36526 1
40464 36486 36527 1
40465 36486 36528 1
40466 36487 36529 1
40467 36487 36530 1
40468 36488 36531 1
40469 36490 36532 1
40470 36491 36533 1
40471 36491 36534 1
40472 36494 36535 1
40473 36498 36536 1
40474 36500 36537 1
40475 36503 36538 1
40476 36504 36539 1
40477 36505 36540 1
40478 36506 36541 1
40479 36506 36542 1
40480 36506 36543 1
40481 36507 36544 1
40482 36508 36545 1
40483 36509 36546 1
40484 36509 36547 1
40485 36509 36548 1
40486 36510 36549 1
40487 36511 36550 1
40488 36512 36551 1
40489 36476 36552 1
40490 36479 36553 1
40491 36508 36554 1
40492 36555 36556 am
40493 36556 36557 am
40494 36557 36558 am
40495 36558 36559 am
40496 36559 36560 am
40497 36560 36555 am
40498 36561 36562 am
40499 36562 36563 1
40500 36557 36563 1
40501 36558 36561 1
40502 36564 36565 am
40503 36565 36566 am
40504 36566 36567 am
40505 36561 36567 am
40506 36562 36564 am
40507 36568 36569 1
40508 36569 36570 1
40509 36570 36571 1
40510 36566 36571 1
40511 36567 36568 1
40512 36572 36573 am
40513 36573 36574 am
40514 36565 36574 am
40515 36571 36572 am
40516 36575 36576 am
40517 36576 36577 am
40518 36564 36577 am
40519 36574 36575 am
40520 36578 36579 1
40521 36579 36580 am
40522 36580 36581 1
40523 36572 36581 1
40524 36573 36578 1
40525 36582 36583 am
40526 36583 36584 am
40527 36584 36585 am
40528 36579 36585 am
40529 36580 36582 am
40530 36586 36587 1
40531 36587 36588 1
40532 36588 36589 1
40533 36583 36589 1
40534 36584 36586 1
40535 36590 36591 am
40536 36591 36592 am
40537 36585 36590 am
40538 36586 36592 am
40539 36593 36594 1
40540 36594 36595 am
40541 36575 36595 am
40542 36576 36593 1
40543 36596 36597 am
40544 36597 36598 am
40545 36598 36599 am
40546 36594 36599 am
40547 36595 36596 am
40548 36600 36601 am
40549 36601 36602 am
40550 36602 36603 am
40551 36598 36603 am
40552 36599 36600 am
40553 36604 36605 am
40554 36605 36606 am
40555 36597 36606 am
40556 36603 36604 am
40557 36555 36607 1
40558 36560 36608 1
40559 36577 36609 1
40560 36601 36610 1
40561 36610 36611 1
40562 36591 36612 1
40563 36582 36613 1
40564 36604 36614 1
40565 36556 36615 1
40566 36559 36616 1
40567 36563 36617 1
40568 36563 36618 1
40569 36568 36619 1
40570 36568 36620 1
40571 36569 36621 1
40572 36569 36622 1
40573 36570 36623 1
40574 36570 36624 1
40575 36578 36625 1
40576 36581 36626 1
40577 36587 36627 1
40578 36587 36628 1
40579 36588 36629 1
40580 36588 36630 1
40581 36589 36631 1
40582 36589 36632 1
40583 36590 36633 1
40584 36592 36634 1
40585 36593 36635 1
40586 36593 36636 1
40587 36596 36637 1
40588 36600 36638 1
40589 36602 36639 1
40590 36605 36640 1
40591 36606 36641 1
40592 36607 36642 1
40593 36608 36643 1
40594 36608 36644 1
40595 36608 36645 1
40596 36609 36646 1
40597 36610 36647 1
40598 36611 36648 1
40599 36611 36649 1
40600 36611 36650 1
40601 36612 36651 1
40602 36613 36652 1
40603 36614 36653 1
40604 36578 36654 1
40605 36581 36655 1
40606 36610 36656 1
40607 36659 36658 1
40608 36660 36659 1
40609 36661 36660 1
40610 36662 36661 1
40611 36657 36658 1
40612 36657 36662 1
40613 36664 36663 1
40614 36665 36664 1
40615 36666 36665 1
40616 36660 36663 1
40617 36659 36666 1
40618 36668 36667 1
40619 36669 36668 1
40620 36670 36669 1
40621 36664 36667 1
40622 36663 36670 1
40623 36672 36671 1
40624 36673 36672 1
40625 36674 36673 1
40626 36669 36671 1
40627 36668 36674 1
40628 36676 36675 1
40629 36677 36676 1
40630 36678 36677 1
40631 36673 36675 1
40632 36672 36678 1
40633 36680 36679 1
40634 36681 36680 1
40635 36671 36681 2
40636 36678 36679 1
40637 36683 36682 1
40638 36684 36683 1
40639 36685 36684 1
40640 36677 36682 1
40641 36676 36685 1
40642 36687 36686 1
40643 36688 36687 1
40644 36674 36686 1
40645 36675 36688 1
40646 36690 36689 2
40647 36691 36690 1
40648 36692 36691 1
40649 36687 36689 1
40650 36686 36692 2
40651 36694 36693 1
40652 36695 36694 1
40653 36696 36695 2
40654 36690 36693 1
40655 36689 36696 1
40656 36698 36697 1
40657 36699 36698 1
40658 36700 36699 1
40659 36696 36697 1
40660 36695 36700 1
40661 36702 36701 1
40662 36688 36702 1
40663 36685 36701 1
40664 36704 36703 1
40665 36705 36704 1
40666 36701 36705 1
40667 36684 36703 1
40668 36707 36706 1
40669 36708 36707 1
40670 36709 36708 1
40671 36704 36706 1
40672 36703 36709 1
40673 36711 36710 1
40674 36712 36711 1
40675 36713 36712 1
40676 36708 36710 1
40677 36707 36713 1
40678 36715 36714 1
40679 36716 36715 1
40680 36717 36716 1
40681 36712 36714 1
40682 36711 36717 1
40683 36719 36718 1
40684 36683 36719 1
40685 36709 36718 1
40686 36721 36720 1
40687 36718 36721 1
40688 36710 36720 1
40689 36723 36722 1
40690 36720 36723 1
40691 36717 36722 1
40692 36725 36724 1
40693 36726 36725 1
40694 36722 36726 1
40695 36716 36724 1
40696 36728 36727 1
40697 36729 36728 1
40698 36730 36729 1
40699 36715 36727 1
40700 36714 36730 1
40701 36732 36731 1
40702 36733 36732 1
40703 36734 36733 1
40704 36729 36731 1
40705 36728 36734 1
40706 36736 36735 1
40707 36737 36736 1
40708 36738 36737 1
40709 36734 36735 1
40710 36733 36738 1
40711 36740 36739 1
40712 36741 36740 1
40713 36723 36741 1
40714 36721 36739 1
40715 36743 36742 1
40716 36744 36743 1
40717 36745 36744 1
40718 36740 36742 1
40719 36739 36745 1
40720 36747 36746 1
40721 36748 36747 1
40722 36749 36748 1
40723 36744 36746 1
40724 36743 36749 1
40725 36751 36750 1
40726 36741 36751 1
40727 36726 36750 1
40728 36753 36752 1
40729 36754 36753 1
40730 36750 36754 1
40731 36725 36752 1
40732 36756 36755 1
40733 36757 36756 1
40734 36724 36757 1
40735 36752 36755 1
40736 36759 36758 1
40737 36760 36759 1
40738 36753 36758 1
40739 36755 36760 1
40740 36762 36761 1
40741 36763 36762 1
40742 36756 36761 1
40743 36760 36763 1
40744 36765 36764 1
40745 36766 36765 1
40746 36767 36766 1
40747 36762 36764 1
40748 36761 36767 1
40749 36769 36768 1
40750 36770 36769 1
40751 36759 36770 1
40752 36763 36768 1
40753 36764 36771 1
40754 36768 36772 1
40755 36771 36772 1
40756 36698 36773 1
40757 36773 36774 1
40758 36773 36775 1
40759 36730 36776 1
40760 36778 36777 1
40761 36779 36778 1
40762 36780 36779 1
40763 36770 36777 1
40764 36769 36780 1
40765 36782 36781 1
40766 36783 36782 1
40767 36784 36783 1
40768 36780 36781 1
40769 36779 36784 1
40770 36786 36785 1
40771 36787 36786 1
40772 36788 36787 1
40773 36783 36785 1
40774 36782 36788 1
40775 36790 36789 1
40776 36791 36790 1
40777 36781 36791 1
40778 36788 36789 1
40779 36793 36792 1
40780 36794 36793 1
40781 36787 36794 1
40782 36789 36792 1
40783 36796 36795 1
40784 36790 36796 1
40785 36772 36791 1
40786 36771 36795 1
40787 36798 36797 1
40788 36796 36798 1
40789 36792 36797 1
40790 36800 36799 1
40791 36801 36800 1
40792 36802 36801 1
40793 36798 36799 1
40794 36797 36802 1
40795 36802 36803 2
40796 36657 36804 1
40797 36657 36805 1
40798 36658 36806 1
40799 36658 36807 1
40800 36659 36808 1
40801 36660 36809 1
40802 36661 36810 1
40803 36661 36811 1
40804 36663 36812 1
40805 36664 36813 1
40806 36665 36814 1
40807 36665 36815 1
40808 36666 36816 1
40809 36666 36817 1
40810 36668 36818 1
40811 36669 36819 1
40812 36670 36820 1
40813 36670 36821 1
40814 36674 36822 1
40815 36679 36823 1
40816 36679 36824 1
40817 36680 36825 1
40818 36680 36826 1
40819 36681 36827 1
40820 36691 36829 1
40821 36691 36830 1
40822 36692 36831 1
40823 36693 36832 1
40824 36693 36833 1
40825 36694 36834 1
40826 36694 36835 1
40827 36697 36836 1
40828 36697 36837 1
40829 36698 36838 1
40830 36699 36839 1
40831 36699 36840 1
40832 36700 36841 1
40833 36700 36842 1
40834 36702 36843 1
40835 36706 36844 1
40836 36713 36845 1
40837 36719 36846 1
40838 36728 36847 1
40839 36729 36848 1
40840 36730 36849 1
40841 36731 36850 1
40842 36731 36851 1
40843 36732 36852 1
40844 36732 36853 1
40845 36733 36854 1
40846 36734 36855 1
40847 36735 36856 1
40848 36735 36857 1
40849 36736 36858 1
40850 36736 36859 1
40851 36737 36860 1
40852 36737 36861 1
40853 36738 36862 1
40854 36743 36863 1
40855 36744 36864 1
40856 36746 36865 1
40857 36746 36866 1
40858 36747 36867 1
40859 36747 36868 1
40860 36748 36869 1
40861 36748 36870 1
40862 36749 36871 1
40863 36749 36872 1
40864 36751 36873 1
40865 36754 36874 1
40866 36757 36875 1
40867 36761 36876 1
40868 36762 36877 1
40869 36764 36878 1
40870 36765 36879 1
40871 36765 36880 1
40872 36766 36881 1
40873 36766 36882 1
40874 36767 36883 1
40875 36767 36884 1
40876 36773 36885 1
40877 36774 36886 1
40878 36774 36887 1
40879 36774 36888 1
40880 36775 36889 1
40881 36775 36890 1
40882 36775 36891 1
40883 36776 36892 1
40884 36777 36893 1
40885 36778 36894 1
40886 36784 36895 1
40887 36785 36896 1
40888 36786 36897 1
40889 36793 36898 1
40890 36794 36899 1
40891 36795 36900 1
40892 36799 36901 1
40893 36799 36902 1
40894 36800 36903 1
40895 36800 36904 1
40896 36801 36905 1
40897 36801 36906 1
40898 36687 36828 1
40899 36909 36908 1
40900 36910 36909 1
40901 36911 36910 1
40902 36912 36911 1
40903 36907 36908 1
40904 36907 36912 1
40905 36914 36913 1
40906 36915 36914 1
40907 36916 36915 1
40908 36910 36913 1
40909 36909 36916 1
40910 36918 36917 1
40911 36919 36918 1
40912 36920 36919 1
40913 36914 36917 1
40914 36913 36920 1
40915 36922 36921 1
40916 36923 36922 1
40917 36924 36923 1
40918 36919 36921 1
40919 36918 36924 1
40920 36926 36925 1
40921 36927 36926 1
40922 36928 36927 1
40923 36923 36925 1
40924 36922 36928 1
40925 36930 36929 1
40926 36931 36930 1
40927 36921 36931 2
40928 36928 36929 1
40929 36933 36932 1
40930 36934 36933 1
40931 36935 36934 1
40932 36927 36932 1
40933 36926 36935 1
40934 36937 36936 1
40935 36938 36937 1
40936 36924 36936 1
40937 36925 36938 1
40938 36940 36939 2
40939 36941 36940 1
40940 36942 36941 1
40941 36937 36939 1
40942 36936 36942 2
40943 36944 36943 1
40944 36945 36944 1
40945 36946 36945 2
40946 36940 36943 1
40947 36939 36946 1
40948 36948 36947 1
40949 36949 36948 1
40950 36950 36949 1
40951 36946 36947 1
40952 36945 36950 1
40953 36952 36951 1
40954 36938 36952 1
40955 36935 36951 1
40956 36954 36953 1
40957 36955 36954 1
40958 36951 36955 1
40959 36934 36953 1
40960 36957 36956 1
40961 36958 36957 1
40962 36959 36958 1
40963 36954 36956 1
40964 36953 36959 1
40965 36961 36960 1
40966 36962 36961 1
40967 36963 36962 1
40968 36958 36960 1
40969 36957 36963 1
40970 36965 36964 1
40971 36966 36965 1
40972 36967 36966 1
40973 36962 36964 1
40974 36961 36967 1
40975 36969 36968 1
40976 36933 36969 1
40977 36959 36968 1
40978 36971 36970 1
40979 36968 36971 1
40980 36960 36970 1
40981 36973 36972 1
40982 36970 36973 1
40983 36967 36972 1
40984 36975 36974 1
40985 36976 36975 1
40986 36972 36976 1
40987 36966 36974 1
40988 36978 36977 1
40989 36979 36978 1
40990 36980 36979 1
40991 36965 36977 1
40992 36964 36980 1
40993 36982 36981 1
40994 36983 36982 1
40995 36984 36983 1
40996 36979 36981 1
40997 36978 36984 1
40998 36986 36985 1
40999 36987 36986 1
41000 36988 36987 1
41001 36984 36985 1
41002 36983 36988 1
41003 36990 36989 1
41004 36991 36990 1
41005 36973 36991 1
41006 36971 36989 1
41007 36993 36992 1
41008 36994 36993 1
41009 36995 36994 1
41010 36990 36992 1
41011 36989 36995 1
41012 36997 36996 1
41013 36998 36997 1
41014 36999 36998 1
41015 36994 36996 1
41016 36993 36999 1
41017 37001 37000 1
41018 36991 37001 1
41019 36976 37000 1
41020 37003 37002 1
41021 37004 37003 1
41022 37000 37004 1
41023 36975 37002 1
41024 37006 37005 1
41025 37007 37006 1
41026 36974 37007 1
41027 37002 37005 1
41028 37009 37008 1
41029 37010 37009 1
41030 37003 37008 1
41031 37005 37010 1
41032 37012 37011 1
41033 37013 37012 1
41034 37006 37011 1
41035 37010 37013 1
41036 37015 37014 1
41037 37016 37015 1
41038 37017 37016 1
41039 37012 37014 1
41040 37011 37017 1
41041 37019 37018 1
41042 37020 37019 1
41043 37009 37020 1
41044 37013 37018 1
41045 37014 37021 1
41046 37018 37022 1
41047 37021 37022 1
41048 36948 37023 1
41049 37023 37024 1
41050 37023 37025 1
41051 36980 37026 1
41052 37028 37027 1
41053 37029 37028 1
41054 37030 37029 1
41055 37020 37027 1
41056 37019 37030 1
41057 37032 37031 1
41058 37033 37032 1
41059 37034 37033 1
41060 37030 37031 1
41061 37029 37034 1
41062 37036 37035 1
41063 37037 37036 1
41064 37038 37037 1
41065 37033 37035 1
41066 37032 37038 1
41067 37040 37039 1
41068 37041 37040 1
41069 37031 37041 1
41070 37038 37039 1
41071 37043 37042 1
41072 37044 37043 1
41073 37037 37044 1
41074 37039 37042 1
41075 37046 37045 1
41076 37040 37046 1
41077 37022 37041 1
41078 37021 37045 1
41079 37048 37047 1
41080 37046 37048 1
41081 37042 37047 1
41082 37050 37049 1
41083 37051 37050 1
41084 37052 37051 1
41085 37048 37049 1
41086 37047 37052 1
41087 37052 37053 2
41088 36907 37054 1
41089 36907 37055 1
41090 36908 37056 1
41091 36908 37057 1
41092 36909 37058 1
41093 36910 37059 1
41094 36911 37060 1
41095 36911 37061 1
41096 36913 37062 1
41097 36914 37063 1
41098 36915 37064 1
41099 36915 37065 1
41100 36916 37066 1
41101 36916 37067 1
41102 36918 37068 1
41103 36919 37069 1
41104 36920 37070 1
41105 36920 37071 1
41106 36924 37072 1
41107 36929 37073 1
41108 36929 37074 1
41109 36930 37075 1
41110 36930 37076 1
41111 36931 37077 1
41112 36941 37079 1
41113 36941 37080 1
41114 36942 37081 1
41115 36943 37082 1
41116 36943 37083 1
41117 36944 37084 1
41118 36944 37085 1
41119 36947 37086 1
41120 36947 37087 1
41121 36948 37088 1
41122 36949 37089 1
41123 36949 37090 1
41124 36950 37091 1
41125 36950 37092 1
41126 36952 37093 1
41127 36956 37094 1
41128 36963 37095 1
41129 36969 37096 1
41130 36978 37097 1
41131 36979 37098 1
41132 36980 37099 1
41133 36981 37100 1
41134 36981 37101 1
41135 36982 37102 1
41136 36982 37103 1
41137 36983 37104 1
41138 36984 37105 1
41139 36985 37106 1
41140 36985 37107 1
41141 36986 37108 1
41142 36986 37109 1
41143 36987 37110 1
41144 36987 37111 1
41145 36988 37112 1
41146 36993 37113 1
41147 36994 37114 1
41148 36996 37115 1
41149 36996 37116 1
41150 36997 37117 1
41151 36997 37118 1
41152 36998 37119 1
41153 36998 37120 1
41154 36999 37121 1
41155 36999 37122 1
41156 37001 37123 1
41157 37004 37124 1
41158 37007 37125 1
41159 37011 37126 1
41160 37012 37127 1
41161 37014 37128 1
41162 37015 37129 1
41163 37015 37130 1
41164 37016 37131 1
41165 37016 37132 1
41166 37017 37133 1
41167 37017 37134 1
41168 37023 37135 1
41169 37024 37136 1
41170 37024 37137 1
41171 37024 37138 1
41172 37025 37139 1
41173 37025 37140 1
41174 37025 37141 1
41175 37026 37142 1
41176 37027 37143 1
41177 37028 37144 1
41178 37034 37145 1
41179 37035 37146 1
41180 37036 37147 1
41181 37043 37148 1
41182 37044 37149 1
41183 37045 37150 1
41184 37049 37151 1
41185 37049 37152 1
41186 37050 37153 1
41187 37050 37154 1
41188 37051 37155 1
41189 37051 37156 1
41190 36937 37078 1
41191 37159 37158 1
41192 37160 37159 1
41193 37161 37160 1
41194 37162 37161 1
41195 37157 37158 1
41196 37157 37162 1
41197 37164 37163 1
41198 37165 37164 1
41199 37166 37165 1
41200 37160 37163 1
41201 37159 37166 1
41202 37168 37167 1
41203 37169 37168 1
41204 37170 37169 1
41205 37164 37167 1
41206 37163 37170 1
41207 37172 37171 1
41208 37173 37172 1
41209 37174 37173 1
41210 37169 37171 1
41211 37168 37174 1
41212 37176 37175 1
41213 37177 37176 1
41214 37178 37177 1
41215 37173 37175 1
41216 37172 37178 1
41217 37180 37179 1
41218 37181 37180 1
41219 37171 37181 2
41220 37178 37179 1
41221 37183 37182 1
41222 37184 37183 1
41223 37185 37184 1
41224 37177 37182 1
41225 37176 37185 1
41226 37187 37186 1
41227 37188 37187 1
41228 37174 37186 1
41229 37175 37188 1
41230 37190 37189 2
41231 37191 37190 1
41232 37192 37191 1
41233 37187 37189 1
41234 37186 37192 2
41235 37194 37193 1
41236 37195 37194 1
41237 37196 37195 2
41238 37190 37193 1
41239 37189 37196 1
41240 37198 37197 1
41241 37199 37198 1
41242 37200 37199 1
41243 37196 37197 1
41244 37195 37200 1
41245 37202 37201 1
41246 37188 37202 1
41247 37185 37201 1
41248 37204 37203 1
41249 37205 37204 1
41250 37201 37205 1
41251 37184 37203 1
41252 37207 37206 1
41253 37208 37207 1
41254 37209 37208 1
41255 37204 37206 1
41256 37203 37209 1
41257 37211 37210 1
41258 37212 37211 1
41259 37213 37212 1
41260 37208 37210 1
41261 37207 37213 1
41262 37215 37214 1
41263 37216 37215 1
41264 37217 37216 1
41265 37212 37214 1
41266 37211 37217 1
41267 37219 37218 1
41268 37183 37219 1
41269 37209 37218 1
41270 37221 37220 1
41271 37218 37221 1
41272 37210 37220 1
41273 37223 37222 1
41274 37220 37223 1
41275 37217 37222 1
41276 37225 37224 1
41277 37226 37225 1
41278 37222 37226 1
41279 37216 37224 1
41280 37228 37227 1
41281 37229 37228 1
41282 37230 37229 1
41283 37215 37227 1
41284 37214 37230 1
41285 37232 37231 1
41286 37233 37232 1
41287 37234 37233 1
41288 37229 37231 1
41289 37228 37234 1
41290 37236 37235 1
41291 37237 37236 1
41292 37238 37237 1
41293 37234 37235 1
41294 37233 37238 1
41295 37240 37239 1
41296 37241 37240 1
41297 37223 37241 1
41298 37221 37239 1
41299 37243 37242 1
41300 37244 37243 1
41301 37245 37244 1
41302 37240 37242 1
41303 37239 37245 1
41304 37247 37246 1
41305 37248 37247 1
41306 37249 37248 1
41307 37244 37246 1
41308 37243 37249 1
41309 37251 37250 1
41310 37241 37251 1
41311 37226 37250 1
41312 37253 37252 1
41313 37254 37253 1
41314 37250 37254 1
41315 37225 37252 1
41316 37256 37255 1
41317 37257 37256 1
41318 37224 37257 1
41319 37252 37255 1
41320 37259 37258 1
41321 37260 37259 1
41322 37253 37258 1
41323 37255 37260 1
41324 37262 37261 1
41325 37263 37262 1
41326 37256 37261 1
41327 37260 37263 1
41328 37265 37264 1
41329 37266 37265 1
41330 37267 37266 1
41331 37262 37264 1
41332 37261 37267 1
41333 37269 37268 1
41334 37270 37269 1
41335 37259 37270 1
41336 37263 37268 1
41337 37264 37271 1
41338 37268 37272 1
41339 37271 37272 1
41340 37198 37273 1
41341 37273 37274 1
41342 37273 37275 1
41343 37230 37276 1
41344 37278 37277 1
41345 37279 37278 1
41346 37280 37279 1
41347 37270 37277 1
41348 37269 37280 1
41349 37282 37281 1
41350 37283 37282 1
41351 37284 37283 1
41352 37280 37281 1
41353 37279 37284 1
41354 37286 37285 1
41355 37287 37286 1
41356 37288 37287 1
41357 37283 37285 1
41358 37282 37288 1
41359 37290 37289 1
41360 37291 37290 1
41361 37281 37291 1
41362 37288 37289 1
41363 37293 37292 1
41364 37294 37293 1
41365 37287 37294 1
41366 37289 37292 1
41367 37296 37295 1
41368 37290 37296 1
41369 37272 37291 1
41370 37271 37295 1
41371 37298 37297 1
41372 37296 37298 1
41373 37292 37297 1
41374 37300 37299 1
41375 37301 37300 1
41376 37302 37301 1
41377 37298 37299 1
41378 37297 37302 1
41379 37302 37303 2
41380 37157 37304 1
41381 37157 37305 1
41382 37158 37306 1
41383 37158 37307 1
41384 37159 37308 1
41385 37160 37309 1
41386 37161 37310 1
41387 37161 37311 1
41388 37163 37312 1
41389 37164 37313 1
41390 37165 37314 1
41391 37165 37315 1
41392 37166 37316 1
41393 37166 37317 1
41394 37168 37318 1
41395 37169 37319 1
41396 37170 37320 1
41397 37170 37321 1
41398 37174 37322 1
41399 37179 37323 1
41400 37179 37324 1
41401 37180 37325 1
41402 37180 37326 1
41403 37181 37327 1
41404 37191 37329 1
41405 37191 37330 1
41406 37192 37331 1
41407 37193 37332 1
41408 37193 37333 1
41409 37194 37334 1
41410 37194 37335 1
41411 37197 37336 1
41412 37197 37337 1
41413 37198 37338 1
41414 37199 37339 1
41415 37199 37340 1
41416 37200 37341 1
41417 37200 37342 1
41418 37202 37343 1
41419 37206 37344 1
41420 37213 37345 1
41421 37219 37346 1
41422 37228 37347 1
41423 37229 37348 1
41424 37230 37349 1
41425 37231 37350 1
41426 37231 37351 1
41427 37232 37352 1
41428 37232 37353 1
41429 37233 37354 1
41430 37234 37355 1
41431 37235 37356 1
41432 37235 37357 1
41433 37236 37358 1
41434 37236 37359 1
41435 37237 37360 1
41436 37237 37361 1
41437 37238 37362 1
41438 37243 37363 1
41439 37244 37364 1
41440 37246 37365 1
41441 37246 37366 1
41442 37247 37367 1
41443 37247 37368 1
41444 37248 37369 1
41445 37248 37370 1
41446 37249 37371 1
41447 37249 37372 1
41448 37251 37373 1
41449 37254 37374 1
41450 37257 37375 1
41451 37261 37376 1
41452 37262 37377 1
41453 37264 37378 1
41454 37265 37379 1
41455 37265 37380 1
41456 37266 37381 1
41457 37266 37382 1
41458 37267 37383 1
41459 37267 37384 1
41460 37273 37385 1
41461 37274 37386 1
41462 37274 37387 1
41463 37274 37388 1
41464 37275 37389 1
41465 37275 37390 1
41466 37275 37391 1
41467 37276 37392 1
41468 37277 37393 1
41469 37278 37394 1
41470 37284 37395 1
41471 37285 37396 1
41472 37286 37397 1
41473 37293 37398 1
41474 37294 37399 1
41475 37295 37400 1
41476 37299 37401 1
41477 37299 37402 1
41478 37300 37403 1
41479 37300 37404 1
41480 37301 37405 1
41481 37301 37406 1
41482 37187 37328 1
41483 37409 37408 1
41484 37410 37409 1
41485 37411 37410 1
41486 37412 37411 1
41487 37407 37408 1
41488 37407 37412 1
41489 37414 37413 1
41490 37415 37414 1
41491 37416 37415 1
41492 37410 37413 1
41493 37409 37416 1
41494 37418 37417 1
41495 37419 37418 1
41496 37420 37419 1
41497 37414 37417 1
41498 37413 37420 1
41499 37422 37421 1
41500 37423 37422 1
41501 37424 37423 1
41502 37419 37421 1
41503 37418 37424 1
41504 37426 37425 1
41505 37427 37426 1
41506 37428 37427 1
41507 37423 37425 1
41508 37422 37428 1
41509 37430 37429 1
41510 37431 37430 1
41511 37421 37431 2
41512 37428 37429 1
41513 37433 37432 1
41514 37434 37433 1
41515 37435 37434 1
41516 37427 37432 1
41517 37426 37435 1
41518 37437 37436 1
41519 37438 37437 1
41520 37424 37436 1
41521 37425 37438 1
41522 37440 37439 2
41523 37441 37440 1
41524 37442 37441 1
41525 37437 37439 1
41526 37436 37442 2
41527 37444 37443 1
41528 37445 37444 1
41529 37446 37445 2
41530 37440 37443 1
41531 37439 37446 1
41532 37448 37447 1
41533 37449 37448 1
41534 37450 37449 1
41535 37446 37447 1
41536 37445 37450 1
41537 37452 37451 1
41538 37438 37452 1
41539 37435 37451 1
41540 37454 37453 1
41541 37455 37454 1
41542 37451 37455 1
41543 37434 37453 1
41544 37457 37456 1
41545 37458 37457 1
41546 37459 37458 1
41547 37454 37456 1
41548 37453 37459 1
41549 37461 37460 1
41550 37462 37461 1
41551 37463 37462 1
41552 37458 37460 1
41553 37457 37463 1
41554 37465 37464 1
41555 37466 37465 1
41556 37467 37466 1
41557 37462 37464 1
41558 37461 37467 1
41559 37469 37468 1
41560 37433 37469 1
41561 37459 37468 1
41562 37471 37470 1
41563 37468 37471 1
41564 37460 37470 1
41565 37473 37472 1
41566 37470 37473 1
41567 37467 37472 1
41568 37475 37474 1
41569 37476 37475 1
41570 37472 37476 1
41571 37466 37474 1
41572 37478 37477 1
41573 37479 37478 1
41574 37480 37479 1
41575 37465 37477 1
41576 37464 37480 1
41577 37482 37481 1
41578 37483 37482 1
41579 37484 37483 1
41580 37479 37481 1
41581 37478 37484 1
41582 37486 37485 1
41583 37487 37486 1
41584 37488 37487 1
41585 37484 37485 1
41586 37483 37488 1
41587 37490 37489 1
41588 37491 37490 1
41589 37473 37491 1
41590 37471 37489 1
41591 37493 37492 1
41592 37494 37493 1
41593 37495 37494 1
41594 37490 37492 1
41595 37489 37495 1
41596 37497 37496 1
41597 37498 37497 1
41598 37499 37498 1
41599 37494 37496 1
41600 37493 37499 1
41601 37501 37500 1
41602 37491 37501 1
41603 37476 37500 1
41604 37503 37502 1
41605 37504 37503 1
41606 37500 37504 1
41607 37475 37502 1
41608 37506 37505 1
41609 37507 37506 1
41610 37474 37507 1
41611 37502 37505 1
41612 37509 37508 1
41613 37510 37509 1
41614 37503 37508 1
41615 37505 37510 1
41616 37512 37511 1
41617 37513 37512 1
41618 37506 37511 1
41619 37510 37513 1
41620 37515 37514 1
41621 37516 37515 1
41622 37517 37516 1
41623 37512 37514 1
41624 37511 37517 1
41625 37519 37518 1
41626 37520 37519 1
41627 37509 37520 1
41628 37513 37518 1
41629 37514 37521 1
41630 37518 37522 1
41631 37521 37522 1
41632 37448 37523 1
41633 37523 37524 1
41634 37523 37525 1
41635 37480 37526 1
41636 37528 37527 1
41637 37529 37528 1
41638 37530 37529 1
41639 37520 37527 1
41640 37519 37530 1
41641 37532 37531 1
41642 37533 37532 1
41643 37534 37533 1
41644 37530 37531 1
41645 37529 37534 1
41646 37536 37535 1
41647 37537 37536 1
41648 37538 37537 1
41649 37533 37535 1
41650 37532 37538 1
41651 37540 37539 1
41652 37541 37540 1
41653 37531 37541 1
41654 37538 37539 1
41655 37543 37542 1
41656 37544 37543 1
41657 37537 37544 1
41658 37539 37542 1
41659 37546 37545 1
41660 37540 37546 1
41661 37522 37541 1
41662 37521 37545 1
41663 37548 37547 1
41664 37546 37548 1
41665 37542 37547 1
41666 37550 37549 1
41667 37551 37550 1
41668 37552 37551 1
41669 37548 37549 1
41670 37547 37552 1
41671 37552 37553 2
41672 37407 37554 1
41673 37407 37555 1
41674 37408 37556 1
41675 37408 37557 1
41676 37409 37558 1
41677 37410 37559 1
41678 37411 37560 1
41679 37411 37561 1
41680 37413 37562 1
41681 37414 37563 1
41682 37415 37564 1
41683 37415 37565 1
41684 37416 37566 1
41685 37416 37567 1
41686 37418 37568 1
41687 37419 37569 1
41688 37420 37570 1
41689 37420 37571 1
41690 37424 37572 1
41691 37429 37573 1
41692 37429 37574 1
41693 37430 37575 1
41694 37430 37576 1
41695 37431 37577 1
41696 37441 37579 1
41697 37441 37580 1
41698 37442 37581 1
41699 37443 37582 1
41700 37443 37583 1
41701 37444 37584 1
41702 37444 37585 1
41703 37447 37586 1
41704 37447 37587 1
41705 37448 37588 1
41706 37449 37589 1
41707 37449 37590 1
41708 37450 37591 1
41709 37450 37592 1
41710 37452 37593 1
41711 37456 37594 1
41712 37463 37595 1
41713 37469 37596 1
41714 37478 37597 1
41715 37479 37598 1
41716 37480 37599 1
41717 37481 37600 1
41718 37481 37601 1
41719 37482 37602 1
41720 37482 37603 1
41721 37483 37604 1
41722 37484 37605 1
41723 37485 37606 1
41724 37485 37607 1
41725 37486 37608 1
41726 37486 37609 1
41727 37487 37610 1
41728 37487 37611 1
41729 37488 37612 1
41730 37493 37613 1
41731 37494 37614 1
41732 37496 37615 1
41733 37496 37616 1
41734 37497 37617 1
41735 37497 37618 1
41736 37498 37619 1
41737 37498 37620 1
41738 37499 37621 1
41739 37499 37622 1
41740 37501 37623 1
41741 37504 37624 1
41742 37507 37625 1
41743 37511 37626 1
41744 37512 37627 1
41745 37514 37628 1
41746 37515 37629 1
41747 37515 37630 1
41748 37516 37631 1
41749 37516 37632 1
41750 37517 37633 1
41751 37517 37634 1
41752 37523 37635 1
41753 37524 37636 1
41754 37524 37637 1
41755 37524 37638 1
41756 37525 37639 1
41757 37525 37640 1
41758 37525 37641 1
41759 37526 37642 1
41760 37527 37643 1
41761 37528 37644 1
41762 37534 37645 1
41763 37535 37646 1
41764 37536 37647 1
41765 37543 37648 1
41766 37544 37649 1
41767 37545 37650 1
41768 37549 37651 1
41769 37549 37652 1
41770 37550 37653 1
41771 37550 37654 1
41772 37551 37655 1
41773 37551 37656 1
41774 37437 37578 1
41775 37659 37658 1
41776 37660 37659 1
41777 37661 37660 1
41778 37662 37661 1
41779 37657 37658 1
41780 37657 37662 1
41781 37664 37663 1
41782 37665 37664 1
41783 37666 37665 1
41784 37660 37663 1
41785 37659 37666 1
41786 37668 37667 1
41787 37669 37668 1
41788 37670 37669 1
41789 37664 37667 1
41790 37663 37670 1
41791 37672 37671 1
41792 37673 37672 1
41793 37674 37673 1
41794 37669 37671 1
41795 37668 37674 1
41796 37676 37675 1
41797 37677 37676 1
41798 37678 37677 1
41799 37673 37675 1
41800 37672 37678 1
41801 37680 37679 1
41802 37681 37680 1
41803 37671 37681 2
41804 37678 37679 1
41805 37683 37682 1
41806 37684 37683 1
41807 37685 37684 1
41808 37677 37682 1
41809 37676 37685 1
41810 37687 37686 1
41811 37688 37687 1
41812 37674 37686 1
41813 37675 37688 1
41814 37690 37689 2
41815 37691 37690 1
41816 37692 37691 1
41817 37687 37689 1
41818 37686 37692 2
41819 37694 37693 1
41820 37695 37694 1
41821 37696 37695 2
41822 37690 37693 1
41823 37689 37696 1
41824 37698 37697 1
41825 37699 37698 1
41826 37700 37699 1
41827 37696 37697 1
41828 37695 37700 1
41829 37702 37701 1
41830 37688 37702 1
41831 37685 37701 1
41832 37704 37703 1
41833 37705 37704 1
41834 37701 37705 1
41835 37684 37703 1
41836 37707 37706 1
41837 37708 37707 1
41838 37709 37708 1
41839 37704 37706 1
41840 37703 37709 1
41841 37711 37710 1
41842 37712 37711 1
41843 37713 37712 1
41844 37708 37710 1
41845 37707 37713 1
41846 37715 37714 1
41847 37716 37715 1
41848 37717 37716 1
41849 37712 37714 1
41850 37711 37717 1
41851 37719 37718 1
41852 37683 37719 1
41853 37709 37718 1
41854 37721 37720 1
41855 37718 37721 1
41856 37710 37720 1
41857 37723 37722 1
41858 37720 37723 1
41859 37717 37722 1
41860 37725 37724 1
41861 37726 37725 1
41862 37722 37726 1
41863 37716 37724 1
41864 37728 37727 1
41865 37729 37728 1
41866 37730 37729 1
41867 37715 37727 1
41868 37714 37730 1
41869 37732 37731 1
41870 37733 37732 1
41871 37734 37733 1
41872 37729 37731 1
41873 37728 37734 1
41874 37736 37735 1
41875 37737 37736 1
41876 37738 37737 1
41877 37734 37735 1
41878 37733 37738 1
41879 37740 37739 1
41880 37741 37740 1
41881 37723 37741 1
41882 37721 37739 1
41883 37743 37742 1
41884 37744 37743 1
41885 37745 37744 1
41886 37740 37742 1
41887 37739 37745 1
41888 37747 37746 1
41889 37748 37747 1
41890 37749 37748 1
41891 37744 37746 1
41892 37743 37749 1
41893 37751 37750 1
41894 37741 37751 1
41895 37726 37750 1
41896 37753 37752 1
41897 37754 37753 1
41898 37750 37754 1
41899 37725 37752 1
41900 37756 37755 1
41901 37757 37756 1
41902 37724 37757 1
41903 37752 37755 1
41904 37759 37758 1
41905 37760 37759 1
41906 37753 37758 1
41907 37755 37760 1
41908 37762 37761 1
41909 37763 37762 1
41910 37756 37761 1
41911 37760 37763 1
41912 37765 37764 1
41913 37766 37765 1
41914 37767 37766 1
41915 37762 37764 1
41916 37761 37767 1
41917 37769 37768 1
41918 37770 37769 1
41919 37759 37770 1
41920 37763 37768 1
41921 37764 37771 1
41922 37768 37772 1
41923 37771 37772 1
41924 37698 37773 1
41925 37773 37774 1
41926 37773 37775 1
41927 37730 37776 1
41928 37778 37777 1
41929 37779 37778 1
41930 37780 37779 1
41931 37770 37777 1
41932 37769 37780 1
41933 37782 37781 1
41934 37783 37782 1
41935 37784 37783 1
41936 37780 37781 1
41937 37779 37784 1
41938 37786 37785 1
41939 37787 37786 1
41940 37788 37787 1
41941 37783 37785 1
41942 37782 37788 1
41943 37790 37789 1
41944 37791 37790 1
41945 37781 37791 1
41946 37788 37789 1
41947 37793 37792 1
41948 37794 37793 1
41949 37787 37794 1
41950 37789 37792 1
41951 37796 37795 1
41952 37790 37796 1
41953 37772 37791 1
41954 37771 37795 1
41955 37798 37797 1
41956 37796 37798 1
41957 37792 37797 1
41958 37800 37799 1
41959 37801 37800 1
41960 37802 37801 1
41961 37798 37799 1
41962 37797 37802 1
41963 37802 37803 2
41964 37657 37804 1
41965 37657 37805 1
41966 37658 37806 1
41967 37658 37807 1
41968 37659 37808 1
41969 37660 37809 1
41970 37661 37810 1
41971 37661 37811 1
41972 37663 37812 1
41973 37664 37813 1
41974 37665 37814 1
41975 37665 37815 1
41976 37666 37816 1
41977 37666 37817 1
41978 37668 37818 1
41979 37669 37819 1
41980 37670 37820 1
41981 37670 37821 1
41982 37674 37822 1
41983 37679 37823 1
41984 37679 37824 1
41985 37680 37825 1
41986 37680 37826 1
41987 37681 37827 1
41988 37691 37829 1
41989 37691 37830 1
41990 37692 37831 1
41991 37693 37832 1
41992 37693 37833 1
41993 37694 37834 1
41994 37694 37835 1
41995 37697 37836 1
41996 37697 37837 1
41997 37698 37838 1
41998 37699 37839 1
41999 37699 37840 1
42000 37700 37841 1
42001 37700 37842 1
42002 37702 37843 1
42003 37706 37844 1
42004 37713 37845 1
42005 37719 37846 1
42006 37728 37847 1
42007 37729 37848 1
42008 37730 37849 1
42009 37731 37850 1
42010 37731 37851 1
42011 37732 37852 1
42012 37732 37853 1
42013 37733 37854 1
42014 37734 37855 1
42015 37735 37856 1
42016 37735 37857 1
42017 37736 37858 1
42018 37736 37859 1
42019 37737 37860 1
42020 37737 37861 1
42021 37738 37862 1
42022 37743 37863 1
42023 37744 37864 1
42024 37746 37865 1
42025 37746 37866 1
42026 37747 37867 1
42027 37747 37868 1
42028 37748 37869 1
42029 37748 37870 1
42030 37749 37871 1
42031 37749 37872 1
42032 37751 37873 1
42033 37754 37874 1
42034 37757 37875 1
42035 37761 37876 1
42036 37762 37877 1
42037 37764 37878 1
42038 37765 37879 1
42039 37765 37880 1
42040 37766 37881 1
42041 37766 37882 1
42042 37767 37883 1
42043 37767 37884 1
42044 37773 37885 1
42045 37774 37886 1
42046 37774 37887 1
42047 37774 37888 1
42048 37775 37889 1
42049 37775 37890 1
42050 37775 37891 1
42051 37776 37892 1
42052 37777 37893 1
42053 37778 37894 1
42054 37784 37895 1
42055 37785 37896 1
42056 37786 37897 1
42057 37793 37898 1
42058 37794 37899 1
42059 37795 37900 1
42060 37799 37901 1
42061 37799 37902 1
42062 37800 37903 1
42063 37800 37904 1
42064 37801 37905 1
42065 37801 37906 1
42066 37687 37828 1
42067 37909 37908 1
42068 37910 37909 1
42069 37911 37910 1
42070 37912 37911 1
42071 37907 37908 1
42072 37907 37912 1
42073 37914 37913 1
42074 37915 37914 1
42075 37916 37915 1
42076 37910 37913 1
42077 37909 37916 1
42078 37918 37917 1
42079 37919 37918 1
42080 37920 37919 1
42081 37914 37917 1
42082 37913 37920 1
42083 37922 37921 1
42084 37923 37922 1
42085 37924 37923 1
42086 37919 37921 1
42087 37918 37924 1
42088 37926 37925 1
42089 37927 37926 1
42090 37928 37927 1
42091 37923 37925 1
42092 37922 37928 1
42093 37930 37929 1
42094 37931 37930 1
42095 37921 37931 2
42096 37928 37929 1
42097 37933 37932 1
42098 37934 37933 1
42099 37935 37934 1
42100 37927 37932 1
42101 37926 37935 1
42102 37937 37936 1
42103 37938 37937 1
42104 37924 37936 1
42105 37925 37938 1
42106 37940 37939 2
42107 37941 37940 1
42108 37942 37941 1
42109 37937 37939 1
42110 37936 37942 2
42111 37944 37943 1
42112 37945 37944 1
42113 37946 37945 2
42114 37940 37943 1
42115 37939 37946 1
42116 37948 37947 1
42117 37949 37948 1
42118 37950 37949 1
42119 37946 37947 1
42120 37945 37950 1
42121 37952 37951 1
42122 37938 37952 1
42123 37935 37951 1
42124 37954 37953 1
42125 37955 37954 1
42126 37951 37955 1
42127 37934 37953 1
42128 37957 37956 1
42129 37958 37957 1
42130 37959 37958 1
42131 37954 37956 1
42132 37953 37959 1
42133 37961 37960 1
42134 37962 37961 1
42135 37963 37962 1
42136 37958 37960 1
42137 37957 37963 1
42138 37965 37964 1
42139 37966 37965 1
42140 37967 37966 1
42141 37962 37964 1
42142 37961 37967 1
42143 37969 37968 1
42144 37933 37969 1
42145 37959 37968 1
42146 37971 37970 1
42147 37968 37971 1
42148 37960 37970 1
42149 37973 37972 1
42150 37970 37973 1
42151 37967 37972 1
42152 37975 37974 1
42153 37976 37975 1
42154 37972 37976 1
42155 37966 37974 1
42156 37978 37977 1
42157 37979 37978 1
42158 37980 37979 1
42159 37965 37977 1
42160 37964 37980 1
42161 37982 37981 1
42162 37983 37982 1
42163 37984 37983 1
42164 37979 37981 1
42165 37978 37984 1
42166 37986 37985 1
42167 37987 37986 1
42168 37988 37987 1
42169 37984 37985 1
42170 37983 37988 1
42171 37990 37989 1
42172 37991 37990 1
42173 37973 37991 1
42174 37971 37989 1
42175 37993 37992 1
42176 37994 37993 1
42177 37995 37994 1
42178 37990 37992 1
42179 37989 37995 1
42180 37997 37996 1
42181 37998 37997 1
42182 37999 37998 1
42183 37994 37996 1
42184 37993 37999 1
42185 38001 38000 1
42186 37991 38001 1
42187 37976 38000 1
42188 38003 38002 1
42189 38004 38003 1
42190 38000 38004 1
42191 37975 38002 1
42192 38006 38005 1
42193 38007 38006 1
42194 37974 38007 1
42195 38002 38005 1
42196 38009 38008 1
42197 38010 38009 1
42198 38003 38008 1
42199 38005 38010 1
42200 38012 38011 1
42201 38013 38012 1
42202 38006 38011 1
42203 38010 38013 1
42204 38015 38014 1
42205 38016 38015 1
42206 38017 38016 1
42207 38012 38014 1
42208 38011 38017 1
42209 38019 38018 1
42210 38020 38019 1
42211 38009 38020 1
42212 38013 38018 1
42213 38014 38021 1
42214 38018 38022 1
42215 38021 38022 1
42216 37948 38023 1
42217 38023 38024 1
42218 38023 38025 1
42219 37980 38026 1
42220 38028 38027 1
42221 38029 38028 1
42222 38030 38029 1
42223 38020 38027 1
42224 38019 38030 1
42225 38032 38031 1
42226 38033 38032 1
42227 38034 38033 1
42228 38030 38031 1
42229 38029 38034 1
42230 38036 38035 1
42231 38037 38036 1
42232 38038 38037 1
42233 38033 38035 1
42234 38032 38038 1
42235 38040 38039 1
42236 38041 38040 1
42237 38031 38041 1
42238 38038 38039 1
42239 38043 38042 1
42240 38044 38043 1
42241 38037 38044 1
42242 38039 38042 1
42243 38046 38045 1
42244 38040 38046 1
42245 38022 38041 1
42246 38021 38045 1
42247 38048 38047 1
42248 38046 38048 1
42249 38042 38047 1
42250 38050 38049 1
42251 38051 38050 1
42252 38052 38051 1
42253 38048 38049 1
42254 38047 38052 1
42255 38052 38053 2
42256 37907 38054 1
42257 37907 38055 1
42258 37908 38056 1
42259 37908 38057 1
42260 37909 38058 1
42261 37910 38059 1
42262 37911 38060 1
42263 37911 38061 1
42264 37913 38062 1
42265 37914 38063 1
42266 37915 38064 1
42267 37915 38065 1
42268 37916 38066 1
42269 37916 38067 1
42270 37918 38068 1
42271 37919 38069 1
42272 37920 38070 1
42273 37920 38071 1
42274 37924 38072 1
42275 37929 38073 1
42276 37929 38074 1
42277 37930 38075 1
42278 37930 38076 1
42279 37931 38077 1
42280 37941 38079 1
42281 37941 38080 1
42282 37942 38081 1
42283 37943 38082 1
42284 37943 38083 1
42285 37944 38084 1
42286 37944 38085 1
42287 37947 38086 1
42288 37947 38087 1
42289 37948 38088 1
42290 37949 38089 1
42291 37949 38090 1
42292 37950 38091 1
42293 37950 38092 1
42294 37952 38093 1
42295 37956 38094 1
42296 37963 38095 1
42297 37969 38096 1
42298 37978 38097 1
42299 37979 38098 1
42300 37980 38099 1
42301 37981 38100 1
42302 37981 38101 1
42303 37982 38102 1
42304 37982 38103 1
42305 37983 38104 1
42306 37984 38105 1
42307 37985 38106 1
42308 37985 38107 1
42309 37986 38108 1
42310 37986 38109 1
42311 37987 38110 1
42312 37987 38111 1
42313 37988 38112 1
42314 37993 38113 1
42315 37994 38114 1
42316 37996 38115 1
42317 37996 38116 1
42318 37997 38117 1
42319 37997 38118 1
42320 37998 38119 1
42321 37998 38120 1
42322 37999 38121 1
42323 37999 38122 1
42324 38001 38123 1
42325 38004 38124 1
42326 38007 38125 1
42327 38011 38126 1
42328 38012 38127 1
42329 38014 38128 1
42330 38015 38129 1
42331 38015 38130 1
42332 38016 38131 1
42333 38016 38132 1
42334 38017 38133 1
42335 38017 38134 1
42336 38023 38135 1
42337 38024 38136 1
42338 38024 38137 1
42339 38024 38138 1
42340 38025 38139 1
42341 38025 38140 1
42342 38025 38141 1
42343 38026 38142 1
42344 38027 38143 1
42345 38028 38144 1
42346 38034 38145 1
42347 38035 38146 1
42348 38036 38147 1
42349 38043 38148 1
42350 38044 38149 1
42351 38045 38150 1
42352 38049 38151 1
42353 38049 38152 1
42354 38050 38153 1
42355 38050 38154 1
42356 38051 38155 1
42357 38051 38156 1
42358 37937 38078 1
42359 38159 38158 1
42360 38160 38159 1
42361 38161 38160 1
42362 38162 38161 1
42363 38157 38158 1
42364 38157 38162 1
42365 38164 38163 1
42366 38165 38164 1
42367 38166 38165 1
42368 38160 38163 1
42369 38159 38166 1
42370 38168 38167 1
42371 38169 38168 1
42372 38170 38169 1
42373 38164 38167 1
42374 38163 38170 1
42375 38172 38171 1
42376 38173 38172 1
42377 38174 38173 1
42378 38169 38171 1
42379 38168 38174 1
42380 38176 38175 1
42381 38177 38176 1
42382 38178 38177 1
42383 38173 38175 1
42384 38172 38178 1
42385 38180 38179 1
42386 38181 38180 1
42387 38171 38181 2
42388 38178 38179 1
42389 38183 38182 1
42390 38184 38183 1
42391 38185 38184 1
42392 38177 38182 1
42393 38176 38185 1
42394 38187 38186 1
42395 38188 38187 1
42396 38174 38186 1
42397 38175 38188 1
42398 38190 38189 2
42399 38191 38190 1
42400 38192 38191 1
42401 38187 38189 1
42402 38186 38192 2
42403 38194 38193 1
42404 38195 38194 1
42405 38196 38195 2
42406 38190 38193 1
42407 38189 38196 1
42408 38198 38197 1
42409 38199 38198 1
42410 38200 38199 1
42411 38196 38197 1
42412 38195 38200 1
42413 38202 38201 1
42414 38188 38202 1
42415 38185 38201 1
42416 38204 38203 1
42417 38205 38204 1
42418 38201 38205 1
42419 38184 38203 1
42420 38207 38206 1
42421 38208 38207 1
42422 38209 38208 1
42423 38204 38206 1
42424 38203 38209 1
42425 38211 38210 1
42426 38212 38211 1
42427 38213 38212 1
42428 38208 38210 1
42429 38207 38213 1
42430 38215 38214 1
42431 38216 38215 1
42432 38217 38216 1
42433 38212 38214 1
42434 38211 38217 1
42435 38219 38218 1
42436 38183 38219 1
42437 38209 38218 1
42438 38221 38220 1
42439 38218 38221 1
42440 38210 38220 1
42441 38223 38222 1
42442 38220 38223 1
42443 38217 38222 1
42444 38225 38224 1
42445 38226 38225 1
42446 38222 38226 1
42447 38216 38224 1
42448 38228 38227 1
42449 38229 38228 1
42450 38230 38229 1
42451 38215 38227 1
42452 38214 38230 1
42453 38232 38231 1
42454 38233 38232 1
42455 38234 38233 1
42456 38229 38231 1
42457 38228 38234 1
42458 38236 38235 1
42459 38237 38236 1
42460 38238 38237 1
42461 38234 38235 1
42462 38233 38238 1
42463 38240 38239 1
42464 38241 38240 1
42465 38223 38241 1
42466 38221 38239 1
42467 38243 38242 1
42468 38244 38243 1
42469 38245 38244 1
42470 38240 38242 1
42471 38239 38245 1
42472 38247 38246 1
42473 38248 38247 1
42474 38249 38248 1
42475 38244 38246 1
42476 38243 38249 1
42477 38251 38250 1
42478 38241 38251 1
42479 38226 38250 1
42480 38253 38252 1
42481 38254 38253 1
42482 38250 38254 1
42483 38225 38252 1
42484 38256 38255 1
42485 38257 38256 1
42486 38224 38257 1
42487 38252 38255 1
42488 38259 38258 1
42489 38260 38259 1
42490 38253 38258 1
42491 38255 38260 1
42492 38262 38261 1
42493 38263 38262 1
42494 38256 38261 1
42495 38260 38263 1
42496 38265 38264 1
42497 38266 38265 1
42498 38267 38266 1
42499 38262 38264 1
42500 38261 38267 1
42501 38269 38268 1
42502 38270 38269 1
42503 38259 38270 1
42504 38263 38268 1
42505 38264 38271 1
42506 38268 38272 1
42507 38271 38272 1
42508 38198 38273 1
42509 38273 38274 1
42510 38273 38275 1
42511 38230 38276 1
42512 38278 38277 1
42513 38279 38278 1
42514 38280 38279 1
42515 38270 38277 1
42516 38269 38280 1
42517 38282 38281 1
42518 38283 38282 1
42519 38284 38283 1
42520 38280 38281 1
42521 38279 38284 1
42522 38286 38285 1
42523 38287 38286 1
42524 38288 38287 1
42525 38283 38285 1
42526 38282 38288 1
42527 38290 38289 1
42528 38291 38290 1
42529 38281 38291 1
42530 38288 38289 1
42531 38293 38292 1
42532 38294 38293 1
42533 38287 38294 1
42534 38289 38292 1
42535 38296 38295 1
42536 38290 38296 1
42537 38272 38291 1
42538 38271 38295 1
42539 38298 38297 1
42540 38296 38298 1
42541 38292 38297 1
42542 38300 38299 1
42543 38301 38300 1
42544 38302 38301 1
42545 38298 38299 1
42546 38297 38302 1
42547 38302 38303 2
42548 38157 38304 1
42549 38157 38305 1
42550 38158 38306 1
42551 38158 38307 1
42552 38159 38308 1
42553 38160 38309 1
42554 38161 38310 1
42555 38161 38311 1
42556 38163 38312 1
42557 38164 38313 1
42558 38165 38314 1
42559 38165 38315 1
42560 38166 38316 1
42561 38166 38317 1
42562 38168 38318 1
42563 38169 38319 1
42564 38170 38320 1
42565 38170 38321 1
42566 38174 38322 1
42567 38179 38323 1
42568 38179 38324 1
42569 38180 38325 1
42570 38180 38326 1
42571 38181 38327 1
42572 38191 38329 1
42573 38191 38330 1
42574 38192 38331 1
42575 38193 38332 1
42576 38193 38333 1
42577 38194 38334 1
42578 38194 38335 1
42579 38197 38336 1
42580 38197 38337 1
42581 38198 38338 1
42582 38199 38339 1
42583 38199 38340 1
42584 38200 38341 1
42585 38200 38342 1
42586 38202 38343 1
42587 38206 38344 1
42588 38213 38345 1
42589 38219 38346 1
42590 38228 38347 1
42591 38229 38348 1
42592 38230 38349 1
42593 38231 38350 1
42594 38231 38351 1
42595 38232 38352 1
42596 38232 38353 1
42597 38233 38354 1
42598 38234 38355 1
42599 38235 38356 1
42600 38235 38357 1
42601 38236 38358 1
42602 38236 38359 1
42603 38237 38360 1
42604 38237 38361 1
42605 38238 38362 1
42606 38243 38363 1
42607 38244 38364 1
42608 38246 38365 1
42609 38246 38366 1
42610 38247 38367 1
42611 38247 38368 1
42612 38248 38369 1
42613 38248 38370 1
42614 38249 38371 1
42615 38249 38372 1
42616 38251 38373 1
42617 38254 38374 1
42618 38257 38375 1
42619 38261 38376 1
42620 38262 38377 1
42621 38264 38378 1
42622 38265 38379 1
42623 38265 38380 1
42624 38266 38381 1
42625 38266 38382 1
42626 38267 38383 1
42627 38267 38384 1
42628 38273 38385 1
42629 38274 38386 1
42630 38274 38387 1
42631 38274 38388 1
42632 38275 38389 1
42633 38275 38390 1
42634 38275 38391 1
42635 38276 38392 1
42636 38277 38393 1
42637 38278 38394 1
42638 38284 38395 1
42639 38285 38396 1
42640 38286 38397 1
42641 38293 38398 1
42642 38294 38399 1
42643 38295 38400 1
42644 38299 38401 1
42645 38299 38402 1
42646 38300 38403 1
42647 38300 38404 1
42648 38301 38405 1
42649 38301 38406 1
42650 38187 38328 1
42651 38409 38408 1
42652 38410 38409 1
42653 38411 38410 1
42654 38412 38411 1
42655 38407 38408 1
42656 38407 38412 1
42657 38414 38413 1
42658 38415 38414 1
42659 38416 38415 1
42660 38410 38413 1
42661 38409 38416 1
42662 38418 38417 1
42663 38419 38418 1
42664 38420 38419 1
42665 38414 38417 1
42666 38413 38420 1
42667 38422 38421 1
42668 38423 38422 1
42669 38424 38423 1
42670 38419 38421 1
42671 38418 38424 1
42672 38426 38425 1
42673 38427 38426 1
42674 38428 38427 1
42675 38423 38425 1
42676 38422 38428 1
42677 38430 38429 1
42678 38431 38430 1
42679 38421 38431 2
42680 38428 38429 1
42681 38433 38432 1
42682 38434 38433 1
42683 38435 38434 1
42684 38427 38432 1
42685 38426 38435 1
42686 38437 38436 1
42687 38438 38437 1
42688 38424 38436 1
42689 38425 38438 1
42690 38440 38439 2
42691 38441 38440 1
42692 38442 38441 1
42693 38437 38439 1
42694 38436 38442 2
42695 38444 38443 1
42696 38445 38444 1
42697 38446 38445 2
42698 38440 38443 1
42699 38439 38446 1
42700 38448 38447 1
42701 38449 38448 1
42702 38450 38449 1
42703 38446 38447 1
42704 38445 38450 1
42705 38452 38451 1
42706 38438 38452 1
42707 38435 38451 1
42708 38454 38453 1
42709 38455 38454 1
42710 38451 38455 1
42711 38434 38453 1
42712 38457 38456 1
42713 38458 38457 1
42714 38459 38458 1
42715 38454 38456 1
42716 38453 38459 1
42717 38461 38460 1
42718 38462 38461 1
42719 38463 38462 1
42720 38458 38460 1
42721 38457 38463 1
42722 38465 38464 1
42723 38466 38465 1
42724 38467 38466 1
42725 38462 38464 1
42726 38461 38467 1
42727 38469 38468 1
42728 38433 38469 1
42729 38459 38468 1
42730 38471 38470 1
42731 38468 38471 1
42732 38460 38470 1
42733 38473 38472 1
42734 38470 38473 1
42735 38467 38472 1
42736 38475 38474 1
42737 38476 38475 1
42738 38472 38476 1
42739 38466 38474 1
42740 38478 38477 1
42741 38479 38478 1
42742 38480 38479 1
42743 38465 38477 1
42744 38464 38480 1
42745 38482 38481 1
42746 38483 38482 1
42747 38484 38483 1
42748 38479 38481 1
42749 38478 38484 1
42750 38486 38485 1
42751 38487 38486 1
42752 38488 38487 1
42753 38484 38485 1
42754 38483 38488 1
42755 38490 38489 1
42756 38491 38490 1
42757 38473 38491 1
42758 38471 38489 1
42759 38493 38492 1
42760 38494 38493 1
42761 38495 38494 1
42762 38490 38492 1
42763 38489 38495 1
42764 38497 38496 1
42765 38498 38497 1
42766 38499 38498 1
42767 38494 38496 1
42768 38493 38499 1
42769 38501 38500 1
42770 38491 38501 1
42771 38476 38500 1
42772 38503 38502 1
42773 38504 38503 1
42774 38500 38504 1
42775 38475 38502 1
42776 38506 38505 1
42777 38507 38506 1
42778 38474 38507 1
42779 38502 38505 1
42780 38509 38508 1
42781 38510 38509 1
42782 38503 38508 1
42783 38505 38510 1
42784 38512 38511 1
42785 38513 38512 1
42786 38506 38511 1
42787 38510 38513 1
42788 38515 38514 1
42789 38516 38515 1
42790 38517 38516 1
42791 38512 38514 1
42792 38511 38517 1
42793 38519 38518 1
42794 38520 38519 1
42795 38509 38520 1
42796 38513 38518 1
42797 38514 38521 1
42798 38518 38522 1
42799 38521 38522 1
42800 38448 38523 1
42801 38523 38524 1
42802 38523 38525 1
42803 38480 38526 1
42804 38528 38527 1
42805 38529 38528 1
42806 38530 38529 1
42807 38520 38527 1
42808 38519 38530 1
42809 38532 38531 1
42810 38533 38532 1
42811 38534 38533 1
42812 38530 38531 1
42813 38529 38534 1
42814 38536 38535 1
42815 38537 38536 1
42816 38538 38537 1
42817 38533 38535 1
42818 38532 38538 1
42819 38540 38539 1
42820 38541 38540 1
42821 38531 38541 1
42822 38538 38539 1
42823 38543 38542 1
42824 38544 38543 1
42825 38537 38544 1
42826 38539 38542 1
42827 38546 38545 1
42828 38540 38546 1
42829 38522 38541 1
42830 38521 38545 1
42831 38548 38547 1
42832 38546 38548 1
42833 38542 38547 1
42834 38550 38549 1
42835 38551 38550 1
42836 38552 38551 1
42837 38548 38549 1
42838 38547 38552 1
42839 38552 38553 2
42840 38407 38554 1
42841 38407 38555 1
42842 38408 38556 1
42843 38408 38557 1
42844 38409 38558 1
42845 38410 38559 1
42846 38411 38560 1
42847 38411 38561 1
42848 38413 38562 1
42849 38414 38563 1
42850 38415 38564 1
42851 38415 38565 1
42852 38416 38566 1
42853 38416 38567 1
42854 38418 38568 1
42855 38419 38569 1
42856 38420 38570 1
42857 38420 38571 1
42858 38424 38572 1
42859 38429 38573 1
42860 38429 38574 1
42861 38430 38575 1
42862 38430 38576 1
42863 38431 38577 1
42864 38441 38579 1
42865 38441 38580 1
42866 38442 38581 1
42867 38443 38582 1
42868 38443 38583 1
42869 38444 38584 1
42870 38444 38585 1
42871 38447 38586 1
42872 38447 38587 1
42873 38448 38588 1
42874 38449 38589 1
42875 38449 38590 1
42876 38450 38591 1
42877 38450 38592 1
42878 38452 38593 1
42879 38456 38594 1
42880 38463 38595 1
42881 38469 38596 1
42882 38478 38597 1
42883 38479 38598 1
42884 38480 38599 1
42885 38481 38600 1
42886 38481 38601 1
42887 38482 38602 1
42888 38482 38603 1
42889 38483 38604 1
42890 38484 38605 1
42891 38485 38606 1
42892 38485 38607 1
42893 38486 38608 1
42894 38486 38609 1
42895 38487 38610 1
42896 38487 38611 1
42897 38488 38612 1
42898 38493 38613 1
42899 38494 38614 1
42900 38496 38615 1
42901 38496 38616 1
42902 38497 38617 1
42903 38497 38618 1
42904 38498 38619 1
42905 38498 38620 1
42906 38499 38621 1
42907 38499 38622 1
42908 38501 38623 1
42909 38504 38624 1
42910 38507 38625 1
42911 38511 38626 1
42912 38512 38627 1
42913 38514 38628 1
42914 38515 38629 1
42915 38515 38630 1
42916 38516 38631 1
42917 38516 38632 1
42918 38517 38633 1
42919 38517 38634 1
42920 38523 38635 1
42921 38524 38636 1
42922 38524 38637 1
42923 38524 38638 1
42924 38525 38639 1
42925 38525 38640 1
42926 38525 38641 1
42927 38526 38642 1
42928 38527 38643 1
42929 38528 38644 1
42930 38534 38645 1
42931 38535 38646 1
42932 38536 38647 1
42933 38543 38648 1
42934 38544 38649 1
42935 38545 38650 1
42936 38549 38651 1
42937 38549 38652 1
42938 38550 38653 1
42939 38550 38654 1
42940 38551 38655 1
42941 38551 38656 1
42942 38437 38578 1
42943 38659 38658 1
42944 38660 38659 1
42945 38661 38660 1
42946 38662 38661 1
42947 38657 38658 1
42948 38657 38662 1
42949 38664 38663 1
42950 38665 38664 1
42951 38666 38665 1
42952 38660 38663 1
42953 38659 38666 1
42954 38668 38667 1
42955 38669 38668 1
42956 38670 38669 1
42957 38664 38667 1
42958 38663 38670 1
42959 38672 38671 1
42960 38673 38672 1
42961 38674 38673 1
42962 38669 38671 1
42963 38668 38674 1
42964 38676 38675 1
42965 38677 38676 1
42966 38678 38677 1
42967 38673 38675 1
42968 38672 38678 1
42969 38680 38679 1
42970 38681 38680 1
42971 38671 38681 2
42972 38678 38679 1
42973 38683 38682 1
42974 38684 38683 1
42975 38685 38684 1
42976 38677 38682 1
42977 38676 38685 1
42978 38687 38686 1
42979 38688 38687 1
42980 38674 38686 1
42981 38675 38688 1
42982 38690 38689 2
42983 38691 38690 1
42984 38692 38691 1
42985 38687 38689 1
42986 38686 38692 2
42987 38694 38693 1
42988 38695 38694 1
42989 38696 38695 2
42990 38690 38693 1
42991 38689 38696 1
42992 38698 38697 1
42993 38699 38698 1
42994 38700 38699 1
42995 38696 38697 1
42996 38695 38700 1
42997 38702 38701 1
42998 38688 38702 1
42999 38685 38701 1
43000 38704 38703 1
43001 38705 38704 1
43002 38701 38705 1
43003 38684 38703 1
43004 38707 38706 1
43005 38708 38707 1
43006 38709 38708 1
43007 38704 38706 1
43008 38703 38709 1
43009 38711 38710 1
43010 38712 38711 1
43011 38713 38712 1
43012 38708 38710 1
43013 38707 38713 1
43014 38715 38714 1
43015 38716 38715 1
43016 38717 38716 1
43017 38712 38714 1
43018 38711 38717 1
43019 38719 38718 1
43020 38683 38719 1
43021 38709 38718 1
43022 38721 38720 1
43023 38718 38721 1
43024 38710 38720 1
43025 38723 38722 1
43026 38720 38723 1
43027 38717 38722 1
43028 38725 38724 1
43029 38726 38725 1
43030 38722 38726 1
43031 38716 38724 1
43032 38728 38727 1
43033 38729 38728 1
43034 38730 38729 1
43035 38715 38727 1
43036 38714 38730 1
43037 38732 38731 1
43038 38733 38732 1
43039 38734 38733 1
43040 38729 38731 1
43041 38728 38734 1
43042 38736 38735 1
43043 38737 38736 1
43044 38738 38737 1
43045 38734 38735 1
43046 38733 38738 1
43047 38740 38739 1
43048 38741 38740 1
43049 38723 38741 1
43050 38721 38739 1
43051 38743 38742 1
43052 38744 38743 1
43053 38745 38744 1
43054 38740 38742 1
43055 38739 38745 1
43056 38747 38746 1
43057 38748 38747 1
43058 38749 38748 1
43059 38744 38746 1
43060 38743 38749 1
43061 38751 38750 1
43062 38741 38751 1
43063 38726 38750 1
43064 38753 38752 1
43065 38754 38753 1
43066 38750 38754 1
43067 38725 38752 1
43068 38756 38755 1
43069 38757 38756 1
43070 38724 38757 1
43071 38752 38755 1
43072 38759 38758 1
43073 38760 38759 1
43074 38753 38758 1
43075 38755 38760 1
43076 38762 38761 1
43077 38763 38762 1
43078 38756 38761 1
43079 38760 38763 1
43080 38765 38764 1
43081 38766 38765 1
43082 38767 38766 1
43083 38762 38764 1
43084 38761 38767 1
43085 38769 38768 1
43086 38770 38769 1
43087 38759 38770 1
43088 38763 38768 1
43089 38764 38771 1
43090 38768 38772 1
43091 38771 38772 1
43092 38698 38773 1
43093 38773 38774 1
43094 38773 38775 1
43095 38730 38776 1
43096 38778 38777 1
43097 38779 38778 1
43098 38780 38779 1
43099 38770 38777 1
43100 38769 38780 1
43101 38782 38781 1
43102 38783 38782 1
43103 38784 38783 1
43104 38780 38781 1
43105 38779 38784 1
43106 38786 38785 1
43107 38787 38786 1
43108 38788 38787 1
43109 38783 38785 1
43110 38782 38788 1
43111 38790 38789 1
43112 38791 38790 1
43113 38781 38791 1
43114 38788 38789 1
43115 38793 38792 1
43116 38794 38793 1
43117 38787 38794 1
43118 38789 38792 1
43119 38796 38795 1
43120 38790 38796 1
43121 38772 38791 1
43122 38771 38795 1
43123 38798 38797 1
43124 38796 38798 1
43125 38792 38797 1
43126 38800 38799 1
43127 38801 38800 1
43128 38802 38801 1
43129 38798 38799 1
43130 38797 38802 1
43131 38802 38803 2
43132 38657 38804 1
43133 38657 38805 1
43134 38658 38806 1
43135 38658 38807 1
43136 38659 38808 1
43137 38660 38809 1
43138 38661 38810 1
43139 38661 38811 1
43140 38663 38812 1
43141 38664 38813 1
43142 38665 38814 1
43143 38665 38815 1
43144 38666 38816 1
43145 38666 38817 1
43146 38668 38818 1
43147 38669 38819 1
43148 38670 38820 1
43149 38670 38821 1
43150 38674 38822 1
43151 38679 38823 1
43152 38679 38824 1
43153 38680 38825 1
43154 38680 38826 1
43155 38681 38827 1
43156 38691 38829 1
43157 38691 38830 1
43158 38692 38831 1
43159 38693 38832 1
43160 38693 38833 1
43161 38694 38834 1
43162 38694 38835 1
43163 38697 38836 1
43164 38697 38837 1
43165 38698 38838 1
43166 38699 38839 1
43167 38699 38840 1
43168 38700 38841 1
43169 38700 38842 1
43170 38702 38843 1
43171 38706 38844 1
43172 38713 38845 1
43173 38719 38846 1
43174 38728 38847 1
43175 38729 38848 1
43176 38730 38849 1
43177 38731 38850 1
43178 38731 38851 1
43179 38732 38852 1
43180 38732 38853 1
43181 38733 38854 1
43182 38734 38855 1
43183 38735 38856 1
43184 38735 38857 1
43185 38736 38858 1
43186 38736 38859 1
43187 38737 38860 1
43188 38737 38861 1
43189 38738 38862 1
43190 38743 38863 1
43191 38744 38864 1
43192 38746 38865 1
43193 38746 38866 1
43194 38747 38867 1
43195 38747 38868 1
43196 38748 38869 1
43197 38748 38870 1
43198 38749 38871 1
43199 38749 38872 1
43200 38751 38873 1
43201 38754 38874 1
43202 38757 38875 1
43203 38761 38876 1
43204 38762 38877 1
43205 38764 38878 1
43206 38765 38879 1
43207 38765 38880 1
43208 38766 38881 1
43209 38766 38882 1
43210 38767 38883 1
43211 38767 38884 1
43212 38773 38885 1
43213 38774 38886 1
43214 38774 38887 1
43215 38774 38888 1
43216 38775 38889 1
43217 38775 38890 1
43218 38775 38891 1
43219 38776 38892 1
43220 38777 38893 1
43221 38778 38894 1
43222 38784 38895 1
43223 38785 38896 1
43224 38786 38897 1
43225 38793 38898 1
43226 38794 38899 1
43227 38795 38900 1
43228 38799 38901 1
43229 38799 38902 1
43230 38800 38903 1
43231 38800 38904 1
43232 38801 38905 1
43233 38801 38906 1
43234 38687 38828 1
43235 38909 38908 1
43236 38910 38909 1
43237 38911 38910 1
43238 38912 38911 1
43239 38907 38908 1
43240 38907 38912 1
43241 38914 38913 1
43242 38915 38914 1
43243 38916 38915 1
43244 38910 38913 1
43245 38909 38916 1
43246 38918 38917 1
43247 38919 38918 1
43248 38920 38919 1
43249 38914 38917 1
43250 38913 38920 1
43251 38922 38921 1
43252 38923 38922 1
43253 38924 38923 1
43254 38919 38921 1
43255 38918 38924 1
43256 38926 38925 1
43257 38927 38926 1
43258 38928 38927 1
43259 38923 38925 1
43260 38922 38928 1
43261 38930 38929 1
43262 38931 38930 1
43263 38921 38931 2
43264 38928 38929 1
43265 38933 38932 1
43266 38934 38933 1
43267 38935 38934 1
43268 38927 38932 1
43269 38926 38935 1
43270 38937 38936 1
43271 38938 38937 1
43272 38924 38936 1
43273 38925 38938 1
43274 38940 38939 2
43275 38941 38940 1
43276 38942 38941 1
43277 38937 38939 1
43278 38936 38942 2
43279 38944 38943 1
43280 38945 38944 1
43281 38946 38945 2
43282 38940 38943 1
43283 38939 38946 1
43284 38948 38947 1
43285 38949 38948 1
43286 38950 38949 1
43287 38946 38947 1
43288 38945 38950 1
43289 38952 38951 1
43290 38938 38952 1
43291 38935 38951 1
43292 38954 38953 1
43293 38955 38954 1
43294 38951 38955 1
43295 38934 38953 1
43296 38957 38956 1
43297 38958 38957 1
43298 38959 38958 1
43299 38954 38956 1
43300 38953 38959 1
43301 38961 38960 1
43302 38962 38961 1
43303 38963 38962 1
43304 38958 38960 1
43305 38957 38963 1
43306 38965 38964 1
43307 38966 38965 1
43308 38967 38966 1
43309 38962 38964 1
43310 38961 38967 1
43311 38969 38968 1
43312 38933 38969 1
43313 38959 38968 1
43314 38971 38970 1
43315 38968 38971 1
43316 38960 38970 1
43317 38973 38972 1
43318 38970 38973 1
43319 38967 38972 1
43320 38975 38974 1
43321 38976 38975 1
43322 38972 38976 1
43323 38966 38974 1
43324 38978 38977 1
43325 38979 38978 1
43326 38980 38979 1
43327 38965 38977 1
43328 38964 38980 1
43329 38982 38981 1
43330 38983 38982 1
43331 38984 38983 1
43332 38979 38981 1
43333 38978 38984 1
43334 38986 38985 1
43335 38987 38986 1
43336 38988 38987 1
43337 38984 38985 1
43338 38983 38988 1
43339 38990 38989 1
43340 38991 38990 1
43341 38973 38991 1
43342 38971 38989 1
43343 38993 38992 1
43344 38994 38993 1
43345 38995 38994 1
43346 38990 38992 1
43347 38989 38995 1
43348 38997 38996 1
43349 38998 38997 1
43350 38999 38998 1
43351 38994 38996 1
43352 38993 38999 1
43353 39001 39000 1
43354 38991 39001 1
43355 38976 39000 1
43356 39003 39002 1
43357 39004 39003 1
43358 39000 39004 1
43359 38975 39002 1
43360 39006 39005 1
43361 39007 39006 1
43362 38974 39007 1
43363 39002 39005 1
43364 39009 39008 1
43365 39010 39009 1
43366 39003 39008 1
43367 39005 39010 1
43368 39012 39011 1
43369 39013 39012 1
43370 39006 39011 1
43371 39010 39013 1
43372 39015 39014 1
43373 39016 39015 1
43374 39017 39016 1
43375 39012 39014 1
43376 39011 39017 1
43377 39019 39018 1
43378 39020 39019 1
43379 39009 39020 1
43380 39013 39018 1
43381 39014 39021 1
43382 39018 39022 1
43383 39021 39022 1
43384 38948 39023 1
43385 39023 39024 1
43386 39023 39025 1
43387 38980 39026 1
43388 39028 39027 1
43389 39029 39028 1
43390 39030 39029 1
43391 39020 39027 1
43392 39019 39030 1
43393 39032 39031 1
43394 39033 39032 1
43395 39034 39033 1
43396 39030 39031 1
43397 39029 39034 1
43398 39036 39035 1
43399 39037 39036 1
43400 39038 39037 1
43401 39033 39035 1
43402 39032 39038 1
43403 39040 39039 1
43404 39041 39040 1
43405 39031 39041 1
43406 39038 39039 1
43407 39043 39042 1
43408 39044 39043 1
43409 39037 39044 1
43410 39039 39042 1
43411 39046 39045 1
43412 39040 39046 1
43413 39022 39041 1
43414 39021 39045 1
43415 39048 39047 1
43416 39046 39048 1
43417 39042 39047 1
43418 39050 39049 1
43419 39051 39050 1
43420 39052 39051 1
43421 39048 39049 1
43422 39047 39052 1
43423 39052 39053 2
43424 38907 39054 1
43425 38907 39055 1
43426 38908 39056 1
43427 38908 39057 1
43428 38909 39058 1
43429 38910 39059 1
43430 38911 39060 1
43431 38911 39061 1
43432 38913 39062 1
43433 38914 39063 1
43434 38915 39064 1
43435 38915 39065 1
43436 38916 39066 1
43437 38916 39067 1
43438 38918 39068 1
43439 38919 39069 1
43440 38920 39070 1
43441 38920 39071 1
43442 38924 39072 1
43443 38929 39073 1
43444 38929 39074 1
43445 38930 39075 1
43446 38930 39076 1
43447 38931 39077 1
43448 38941 39079 1
43449 38941 39080 1
43450 38942 39081 1
43451 38943 39082 1
43452 38943 39083 1
43453 38944 39084 1
43454 38944 39085 1
43455 38947 39086 1
43456 38947 39087 1
43457 38948 39088 1
43458 38949 39089 1
43459 38949 39090 1
43460 38950 39091 1
43461 38950 39092 1
43462 38952 39093 1
43463 38956 39094 1
43464 38963 39095 1
43465 38969 39096 1
43466 38978 39097 1
43467 38979 39098 1
43468 38980 39099 1
43469 38981 39100 1
43470 38981 39101 1
43471 38982 39102 1
43472 38982 39103 1
43473 38983 39104 1
43474 38984 39105 1
43475 38985 39106 1
43476 38985 39107 1
43477 38986 39108 1
43478 38986 39109 1
43479 38987 39110 1
43480 38987 39111 1
43481 38988 39112 1
43482 38993 39113 1
43483 38994 39114 1
43484 38996 39115 1
43485 38996 39116 1
43486 38997 39117 1
43487 38997 39118 1
43488 38998 39119 1
43489 38998 39120 1
43490 38999 39121 1
43491 38999 39122 1
43492 39001 39123 1
43493 39004 39124 1
43494 39007 39125 1
43495 39011 39126 1
43496 39012 39127 1
43497 39014 39128 1
43498 39015 39129 1
43499 39015 39130 1
43500 39016 39131 1
43501 39016 39132 1
43502 39017 39133 1
43503 39017 39134 1
43504 39023 39135 1
43505 39024 39136 1
43506 39024 39137 1
43507 39024 39138 1
43508 39025 39139 1
43509 39025 39140 1
43510 39025 39141 1
43511 39026 39142 1
43512 39027 39143 1
43513 39028 39144 1
43514 39034 39145 1
43515 39035 39146 1
43516 39036 39147 1
43517 39043 39148 1
43518 39044 39149 1
43519 39045 39150 1
43520 39049 39151 1
43521 39049 39152 1
43522 39050 39153 1
43523 39050 39154 1
43524 39051 39155 1
43525 39051 39156 1
43526 38937 39078 1
43527 39159 39158 1
43528 39160 39159 1
43529 39161 39160 1
43530 39162 39161 1
43531 39157 39158 1
43532 39157 39162 1
43533 39164 39163 1
43534 39165 39164 1
43535 39166 39165 1
43536 39160 39163 1
43537 39159 39166 1
43538 39168 39167 1
43539 39169 39168 1
43540 39170 39169 1
43541 39164 39167 1
43542 39163 39170 1
43543 39172 39171 1
43544 39173 39172 1
43545 39174 39173 1
43546 39169 39171 1
43547 39168 39174 1
43548 39176 39175 1
43549 39177 39176 1
43550 39178 39177 1
43551 39173 39175 1
43552 39172 39178 1
43553 39180 39179 1
43554 39181 39180 1
43555 39171 39181 2
43556 39178 39179 1
43557 39183 39182 1
43558 39184 39183 1
43559 39185 39184 1
43560 39177 39182 1
43561 39176 39185 1
43562 39187 39186 1
43563 39188 39187 1
43564 39174 39186 1
43565 39175 39188 1
43566 39190 39189 2
43567 39191 39190 1
43568 39192 39191 1
43569 39187 39189 1
43570 39186 39192 2
43571 39194 39193 1
43572 39195 39194 1
43573 39196 39195 2
43574 39190 39193 1
43575 39189 39196 1
43576 39198 39197 1
43577 39199 39198 1
43578 39200 39199 1
43579 39196 39197 1
43580 39195 39200 1
43581 39202 39201 1
43582 39188 39202 1
43583 39185 39201 1
43584 39204 39203 1
43585 39205 39204 1
43586 39201 39205 1
43587 39184 39203 1
43588 39207 39206 1
43589 39208 39207 1
43590 39209 39208 1
43591 39204 39206 1
43592 39203 39209 1
43593 39211 39210 1
43594 39212 39211 1
43595 39213 39212 1
43596 39208 39210 1
43597 39207 39213 1
43598 39215 39214 1
43599 39216 39215 1
43600 39217 39216 1
43601 39212 39214 1
43602 39211 39217 1
43603 39219 39218 1
43604 39183 39219 1
43605 39209 39218 1
43606 39221 39220 1
43607 39218 39221 1
43608 39210 39220 1
43609 39223 39222 1
43610 39220 39223 1
43611 39217 39222 1
43612 39225 39224 1
43613 39226 39225 1
43614 39222 39226 1
43615 39216 39224 1
43616 39228 39227 1
43617 39229 39228 1
43618 39230 39229 1
43619 39215 39227 1
43620 39214 39230 1
43621 39232 39231 1
43622 39233 39232 1
43623 39234 39233 1
43624 39229 39231 1
43625 39228 39234 1
43626 39236 39235 1
43627 39237 39236 1
43628 39238 39237 1
43629 39234 39235 1
43630 39233 39238 1
43631 39240 39239 1
43632 39241 39240 1
43633 39223 39241 1
43634 39221 39239 1
43635 39243 39242 1
43636 39244 39243 1
43637 39245 39244 1
43638 39240 39242 1
43639 39239 39245 1
43640 39247 39246 1
43641 39248 39247 1
43642 39249 39248 1
43643 39244 39246 1
43644 39243 39249 1
43645 39251 39250 1
43646 39241 39251 1
43647 39226 39250 1
43648 39253 39252 1
43649 39254 39253 1
43650 39250 39254 1
43651 39225 39252 1
43652 39256 39255 1
43653 39257 39256 1
43654 39224 39257 1
43655 39252 39255 1
43656 39259 39258 1
43657 39260 39259 1
43658 39253 39258 1
43659 39255 39260 1
43660 39262 39261 1
43661 39263 39262 1
43662 39256 39261 1
43663 39260 39263 1
43664 39265 39264 1
43665 39266 39265 1
43666 39267 39266 1
43667 39262 39264 1
43668 39261 39267 1
43669 39269 39268 1
43670 39270 39269 1
43671 39259 39270 1
43672 39263 39268 1
43673 39264 39271 1
43674 39268 39272 1
43675 39271 39272 1
43676 39198 39273 1
43677 39273 39274 1
43678 39273 39275 1
43679 39230 39276 1
43680 39278 39277 1
43681 39279 39278 1
43682 39280 39279 1
43683 39270 39277 1
43684 39269 39280 1
43685 39282 39281 1
43686 39283 39282 1
43687 39284 39283 1
43688 39280 39281 1
43689 39279 39284 1
43690 39286 39285 1
43691 39287 39286 1
43692 39288 39287 1
43693 39283 39285 1
43694 39282 39288 1
43695 39290 39289 1
43696 39291 39290 1
43697 39281 39291 1
43698 39288 39289 1
43699 39293 39292 1
43700 39294 39293 1
43701 39287 39294 1
43702 39289 39292 1
43703 39296 39295 1
43704 39290 39296 1
43705 39272 39291 1
43706 39271 39295 1
43707 39298 39297 1
43708 39296 39298 1
43709 39292 39297 1
43710 39300 39299 1
43711 39301 39300 1
43712 39302 39301 1
43713 39298 39299 1
43714 39297 39302 1
43715 39302 39303 2
43716 39157 39304 1
43717 39157 39305 1
43718 39158 39306 1
43719 39158 39307 1
43720 39159 39308 1
43721 39160 39309 1
43722 39161 39310 1
43723 39161 39311 1
43724 39163 39312 1
43725 39164 39313 1
43726 39165 39314 1
43727 39165 39315 1
43728 39166 39316 1
43729 39166 39317 1
43730 39168 39318 1
43731 39169 39319 1
43732 39170 39320 1
43733 39170 39321 1
43734 39174 39322 1
43735 39179 39323 1
43736 39179 39324 1
43737 39180 39325 1
43738 39180 39326 1
43739 39181 39327 1
43740 39191 39329 1
43741 39191 39330 1
43742 39192 39331 1
43743 39193 39332 1
43744 39193 39333 1
43745 39194 39334 1
43746 39194 39335 1
43747 39197 39336 1
43748 39197 39337 1
43749 39198 39338 1
43750 39199 39339 1
43751 39199 39340 1
43752 39200 39341 1
43753 39200 39342 1
43754 39202 39343 1
43755 39206 39344 1
43756 39213 39345 1
43757 39219 39346 1
43758 39228 39347 1
43759 39229 39348 1
43760 39230 39349 1
43761 39231 39350 1
43762 39231 39351 1
43763 39232 39352 1
43764 39232 39353 1
43765 39233 39354 1
43766 39234 39355 1
43767 39235 39356 1
43768 39235 39357 1
43769 39236 39358 1
43770 39236 39359 1
43771 39237 39360 1
43772 39237 39361 1
43773 39238 39362 1
43774 39243 39363 1
43775 39244 39364 1
43776 39246 39365 1
43777 39246 39366 1
43778 39247 39367 1
43779 39247 39368 1
43780 39248 39369 1
43781 39248 39370 1
43782 39249 39371 1
43783 39249 39372 1
43784 39251 39373 1
43785 39254 39374 1
43786 39257 39375 1
43787 39261 39376 1
43788 39262 39377 1
43789 39264 39378 1
43790 39265 39379 1
43791 39265 39380 1
43792 39266 39381 1
43793 39266 39382 1
43794 39267 39383 1
43795 39267 39384 1
43796 39273 39385 1
43797 39274 39386 1
43798 39274 39387 1
43799 39274 39388 1
43800 39275 39389 1
43801 39275 39390 1
43802 39275 39391 1
43803 39276 39392 1
43804 39277 39393 1
43805 39278 39394 1
43806 39284 39395 1
43807 39285 39396 1
43808 39286 39397 1
43809 39293 39398 1
43810 39294 39399 1
43811 39295 39400 1
43812 39299 39401 1
43813 39299 39402 1
43814 39300 39403 1
43815 39300 39404 1
43816 39301 39405 1
43817 39301 39406 1
43818 39187 39328 1
43819 39409 39408 1
43820 39410 39409 1
43821 39411 39410 1
43822 39412 39411 1
43823 39407 39408 1
43824 39407 39412 1
43825 39414 39413 1
43826 39415 39414 1
43827 39416 39415 1
43828 39410 39413 1
43829 39409 39416 1
43830 39418 39417 1
43831 39419 39418 1
43832 39420 39419 1
43833 39414 39417 1
43834 39413 39420 1
43835 39422 39421 1
43836 39423 39422 1
43837 39424 39423 1
43838 39419 39421 1
43839 39418 39424 1
43840 39426 39425 1
43841 39427 39426 1
43842 39428 39427 1
43843 39423 39425 1
43844 39422 39428 1
43845 39430 39429 1
43846 39431 39430 1
43847 39421 39431 2
43848 39428 39429 1
43849 39433 39432 1
43850 39434 39433 1
43851 39435 39434 1
43852 39427 39432 1
43853 39426 39435 1
43854 39437 39436 1
43855 39438 39437 1
43856 39424 39436 1
43857 39425 39438 1
43858 39440 39439 2
43859 39441 39440 1
43860 39442 39441 1
43861 39437 39439 1
43862 39436 39442 2
43863 39444 39443 1
43864 39445 39444 1
43865 39446 39445 2
43866 39440 39443 1
43867 39439 39446 1
43868 39448 39447 1
43869 39449 39448 1
43870 39450 39449 1
43871 39446 39447 1
43872 39445 39450 1
43873 39452 39451 1
43874 39438 39452 1
43875 39435 39451 1
43876 39454 39453 1
43877 39455 39454 1
43878 39451 39455 1
43879 39434 39453 1
43880 39457 39456 1
43881 39458 39457 1
43882 39459 39458 1
43883 39454 39456 1
43884 39453 39459 1
43885 39461 39460 1
43886 39462 39461 1
43887 39463 39462 1
43888 39458 39460 1
43889 39457 39463 1
43890 39465 39464 1
43891 39466 39465 1
43892 39467 39466 1
43893 39462 39464 1
43894 39461 39467 1
43895 39469 39468 1
43896 39433 39469 1
43897 39459 39468 1
43898 39471 39470 1
43899 39468 39471 1
43900 39460 39470 1
43901 39473 39472 1
43902 39470 39473 1
43903 39467 39472 1
43904 39475 39474 1
43905 39476 39475 1
43906 39472 39476 1
43907 39466 39474 1
43908 39478 39477 1
43909 39479 39478 1
43910 39480 39479 1
43911 39465 39477 1
43912 39464 39480 1
43913 39482 39481 1
43914 39483 39482 1
43915 39484 39483 1
43916 39479 39481 1
43917 39478 39484 1
43918 39486 39485 1
43919 39487 39486 1
43920 39488 39487 1
43921 39484 39485 1
43922 39483 39488 1
43923 39490 39489 1
43924 39491 39490 1
43925 39473 39491 1
43926 39471 39489 1
43927 39493 39492 1
43928 39494 39493 1
43929 39495 39494 1
43930 39490 39492 1
43931 39489 39495 1
43932 39497 39496 1
43933 39498 39497 1
43934 39499 39498 1
43935 39494 39496 1
43936 39493 39499 1
43937 39501 39500 1
43938 39491 39501 1
43939 39476 39500 1
43940 39503 39502 1
43941 39504 39503 1
43942 39500 39504 1
43943 39475 39502 1
43944 39506 39505 1
43945 39507 39506 1
43946 39474 39507 1
43947 39502 39505 1
43948 39509 39508 1
43949 39510 39509 1
43950 39503 39508 1
43951 39505 39510 1
43952 39512 39511 1
43953 39513 39512 1
43954 39506 39511 1
43955 39510 39513 1
43956 39515 39514 1
43957 39516 39515 1
43958 39517 39516 1
43959 39512 39514 1
43960 39511 39517 1
43961 39519 39518 1
43962 39520 39519 1
43963 39509 39520 1
43964 39513 39518 1
43965 39514 39521 1
43966 39518 39522 1
43967 39521 39522 1
43968 39448 39523 1
43969 39523 39524 1
43970 39523 39525 1
43971 39480 39526 1
43972 39528 39527 1
43973 39529 39528 1
43974 39530 39529 1
43975 39520 39527 1
43976 39519 39530 1
43977 39532 39531 1
43978 39533 39532 1
43979 39534 39533 1
43980 39530 39531 1
43981 39529 39534 1
43982 39536 39535 1
43983 39537 39536 1
43984 39538 39537 1
43985 39533 39535 1
43986 39532 39538 1
43987 39540 39539 1
43988 39541 39540 1
43989 39531 39541 1
43990 39538 39539 1
43991 39543 39542 1
43992 39544 39543 1
43993 39537 39544 1
43994 39539 39542 1
43995 39546 39545 1
43996 39540 39546 1
43997 39522 39541 1
43998 39521 39545 1
43999 39548 39547 1
44000 39546 39548 1
44001 39542 39547 1
44002 39550 39549 1
44003 39551 39550 1
44004 39552 39551 1
44005 39548 39549 1
44006 39547 39552 1
44007 39552 39553 2
44008 39407 39554 1
44009 39407 39555 1
44010 39408 39556 1
44011 39408 39557 1
44012 39409 39558 1
44013 39410 39559 1
44014 39411 39560 1
44015 39411 39561 1
44016 39413 39562 1
44017 39414 39563 1
44018 39415 39564 1
44019 39415 39565 1
44020 39416 39566 1
44021 39416 39567 1
44022 39418 39568 1
44023 39419 39569 1
44024 39420 39570 1
44025 39420 39571 1
44026 39424 39572 1
44027 39429 39573 1
44028 39429 39574 1
44029 39430 39575 1
44030 39430 39576 1
44031 39431 39577 1
44032 39441 39579 1
44033 39441 39580 1
44034 39442 39581 1
44035 39443 39582 1
44036 39443 39583 1
44037 39444 39584 1
44038 39444 39585 1
44039 39447 39586 1
44040 39447 39587 1
44041 39448 39588 1
44042 39449 39589 1
44043 39449 39590 1
44044 39450 39591 1
44045 39450 39592 1
44046 39452 39593 1
44047 39456 39594 1
44048 39463 39595 1
44049 39469 39596 1
44050 39478 39597 1
44051 39479 39598 1
44052 39480 39599 1
44053 39481 39600 1
44054 39481 39601 1
44055 39482 39602 1
44056 39482 39603 1
44057 39483 39604 1
44058 39484 39605 1
44059 39485 39606 1
44060 39485 39607 1
44061 39486 39608 1
44062 39486 39609 1
44063 39487 39610 1
44064 39487 39611 1
44065 39488 39612 1
44066 39493 39613 1
44067 39494 39614 1
44068 39496 39615 1
44069 39496 39616 1
44070 39497 39617 1
44071 39497 39618 1
44072 39498 39619 1
44073 39498 39620 1
44074 39499 39621 1
44075 39499 39622 1
44076 39501 39623 1
44077 39504 39624 1
44078 39507 39625 1
44079 39511 39626 1
44080 39512 39627 1
44081 39514 39628 1
44082 39515 39629 1
44083 39515 39630 1
44084 39516 39631 1
44085 39516 39632 1
44086 39517 39633 1
44087 39517 39634 1
44088 39523 39635 1
44089 39524 39636 1
44090 39524 39637 1
44091 39524 39638 1
44092 39525 39639 1
44093 39525 39640 1
44094 39525 39641 1
44095 39526 39642 1
44096 39527 39643 1
44097 39528 39644 1
44098 39534 39645 1
44099 39535 39646 1
44100 39536 39647 1
44101 39543 39648 1
44102 39544 39649 1
44103 39545 39650 1
44104 39549 39651 1
44105 39549 39652 1
44106 39550 39653 1
44107 39550 39654 1
44108 39551 39655 1
44109 39551 39656 1
44110 39437 39578 1
44111 39659 39658 1
44112 39660 39659 1
44113 39661 39660 1
44114 39662 39661 1
44115 39657 39658 1
44116 39657 39662 1
44117 39664 39663 1
44118 39665 39664 1
44119 39666 39665 1
44120 39660 39663 1
44121 39659 39666 1
44122 39668 39667 1
44123 39669 39668 1
44124 39670 39669 1
44125 39664 39667 1
44126 39663 39670 1
44127 39672 39671 1
44128 39673 39672 1
44129 39674 39673 1
44130 39669 39671 1
44131 39668 39674 1
44132 39676 39675 1
44133 39677 39676 1
44134 39678 39677 1
44135 39673 39675 1
44136 39672 39678 1
44137 39680 39679 1
44138 39681 39680 1
44139 39671 39681 2
44140 39678 39679 1
44141 39683 39682 1
44142 39684 39683 1
44143 39685 39684 1
44144 39677 39682 1
44145 39676 39685 1
44146 39687 39686 1
44147 39688 39687 1
44148 39674 39686 1
44149 39675 39688 1
44150 39690 39689 2
44151 39691 39690 1
44152 39692 39691 1
44153 39687 39689 1
44154 39686 39692 2
44155 39694 39693 1
44156 39695 39694 1
44157 39696 39695 2
44158 39690 39693 1
44159 39689 39696 1
44160 39698 39697 1
44161 39699 39698 1
44162 39700 39699 1
44163 39696 39697 1
44164 39695 39700 1
44165 39702 39701 1
44166 39688 39702 1
44167 39685 39701 1
44168 39704 39703 1
44169 39705 39704 1
44170 39701 39705 1
44171 39684 39703 1
44172 39707 39706 1
44173 39708 39707 1
44174 39709 39708 1
44175 39704 39706 1
44176 39703 39709 1
44177 39711 39710 1
44178 39712 39711 1
44179 39713 39712 1
44180 39708 39710 1
44181 39707 39713 1
44182 39715 39714 1
44183 39716 39715 1
44184 39717 39716 1
44185 39712 39714 1
44186 39711 39717 1
44187 39719 39718 1
44188 39683 39719 1
44189 39709 39718 1
44190 39721 39720 1
44191 39718 39721 1
44192 39710 39720 1
44193 39723 39722 1
44194 39720 39723 1
44195 39717 39722 1
44196 39725 39724 1
44197 39726 39725 1
44198 39722 39726 1
44199 39716 39724 1
44200 39728 39727 1
44201 39729 39728 1
44202 39730 39729 1
44203 39715 39727 1
44204 39714 39730 1
44205 39732 39731 1
44206 39733 39732 1
44207 39734 39733 1
44208 39729 39731 1
44209 39728 39734 1
44210 39736 39735 1
44211 39737 39736 1
44212 39738 39737 1
44213 39734 39735 1
44214 39733 39738 1
44215 39740 39739 1
44216 39741 39740 1
44217 39723 39741 1
44218 39721 39739 1
44219 39743 39742 1
44220 39744 39743 1
44221 39745 39744 1
44222 39740 39742 1
44223 39739 39745 1
44224 39747 39746 1
44225 39748 39747 1
44226 39749 39748 1
44227 39744 39746 1
44228 39743 39749 1
44229 39751 39750 1
44230 39741 39751 1
44231 39726 39750 1
44232 39753 39752 1
44233 39754 39753 1
44234 39750 39754 1
44235 39725 39752 1
44236 39756 39755 1
44237 39757 39756 1
44238 39724 39757 1
44239 39752 39755 1
44240 39759 39758 1
44241 39760 39759 1
44242 39753 39758 1
44243 39755 39760 1
44244 39762 39761 1
44245 39763 39762 1
44246 39756 39761 1
44247 39760 39763 1
44248 39765 39764 1
44249 39766 39765 1
44250 39767 39766 1
44251 39762 39764 1
44252 39761 39767 1
44253 39769 39768 1
44254 39770 39769 1
44255 39759 39770 1
44256 39763 39768 1
44257 39764 39771 1
44258 39768 39772 1
44259 39771 39772 1
44260 39698 39773 1
44261 39773 39774 1
44262 39773 39775 1
44263 39730 39776 1
44264 39778 39777 1
44265 39779 39778 1
44266 39780 39779 1
44267 39770 39777 1
44268 39769 39780 1
44269 39782 39781 1
44270 39783 39782 1
44271 39784 39783 1
44272 39780 39781 1
44273 39779 39784 1
44274 39786 39785 1
44275 39787 39786 1
44276 39788 39787 1
44277 39783 39785 1
44278 39782 39788 1
44279 39790 39789 1
44280 39791 39790 1
44281 39781 39791 1
44282 39788 39789 1
44283 39793 39792 1
44284 39794 39793 1
44285 39787 39794 1
44286 39789 39792 1
44287 39796 39795 1
44288 39790 39796 1
44289 39772 39791 1
44290 39771 39795 1
44291 39798 39797 1
44292 39796 39798 1
44293 39792 39797 1
44294 39800 39799 1
44295 39801 39800 1
44296 39802 39801 1
44297 39798 39799 1
44298 39797 39802 1
44299 39802 39803 2
44300 39657 39804 1
44301 39657 39805 1
44302 39658 39806 1
44303 39658 39807 1
44304 39659 39808 1
44305 39660 39809 1
44306 39661 39810 1
44307 39661 39811 1
44308 39663 39812 1
44309 39664 39813 1
44310 39665 39814 1
44311 39665 39815 1
44312 39666 39816 1
44313 39666 39817 1
44314 39668 39818 1
44315 39669 39819 1
44316 39670 39820 1
44317 39670 39821 1
44318 39674 39822 1
44319 39679 39823 1
44320 39679 39824 1
44321 39680 39825 1
44322 39680 39826 1
44323 39681 39827 1
44324 39691 39829 1
44325 39691 39830 1
44326 39692 39831 1
44327 39693 39832 1
44328 39693 39833 1
44329 39694 39834 1
44330 39694 39835 1
44331 39697 39836 1
44332 39697 39837 1
44333 39698 39838 1
44334 39699 39839 1
44335 39699 39840 1
44336 39700 39841 1
44337 39700 39842 1
44338 39702 39843 1
44339 39706 39844 1
44340 39713 39845 1
44341 39719 39846 1
44342 39728 39847 1
44343 39729 39848 1
44344 39730 39849 1
44345 39731 39850 1
44346 39731 39851 1
44347 39732 39852 1
44348 39732 39853 1
44349 39733 39854 1
44350 39734 39855 1
44351 39735 39856 1
44352 39735 39857 1
44353 39736 39858 1
44354 39736 39859 1
44355 39737 39860 1
44356 39737 39861 1
44357 39738 39862 1
44358 39743 39863 1
44359 39744 39864 1
44360 39746 39865 1
44361 39746 39866 1
44362 39747 39867 1
44363 39747 39868 1
44364 39748 39869 1
44365 39748 39870 1
44366 39749 39871 1
44367 39749 39872 1
44368 39751 39873 1
44369 39754 39874 1
44370 39757 39875 1
44371 39761 39876 1
44372 39762 39877 1
44373 39764 39878 1
44374 39765 39879 1
44375 39765 39880 1
44376 39766 39881 1
44377 39766 39882 1
44378 39767 39883 1
44379 39767 39884 1
44380 39773 39885 1
44381 39774 39886 1
44382 39774 39887 1
44383 39774 39888 1
44384 39775 39889 1
44385 39775 39890 1
44386 39775 39891 1
44387 39776 39892 1
44388 39777 39893 1
44389 39778 39894 1
44390 39784 39895 1
44391 39785 39896 1
44392 39786 39897 1
44393 39793 39898 1
44394 39794 39899 1
44395 39795 39900 1
44396 39799 39901 1
44397 39799 39902 1
44398 39800 39903 1
44399 39800 39904 1
44400 39801 39905 1
44401 39801 39906 1
44402 39687 39828 1
44403 39909 39908 1
44404 39910 39909 1
44405 39911 39910 1
44406 39912 39911 1
44407 39907 39908 1
44408 39907 39912 1
44409 39914 39913 1
44410 39915 39914 1
44411 39916 39915 1
44412 39910 39913 1
44413 39909 39916 1
44414 39918 39917 1
44415 39919 39918 1
44416 39920 39919 1
44417 39914 39917 1
44418 39913 39920 1
44419 39922 39921 1
44420 39923 39922 1
44421 39924 39923 1
44422 39919 39921 1
44423 39918 39924 1
44424 39926 39925 1
44425 39927 39926 1
44426 39928 39927 1
44427 39923 39925 1
44428 39922 39928 1
44429 39930 39929 1
44430 39931 39930 1
44431 39921 39931 2
44432 39928 39929 1
44433 39933 39932 1
44434 39934 39933 1
44435 39935 39934 1
44436 39927 39932 1
44437 39926 39935 1
44438 39937 39936 1
44439 39938 39937 1
44440 39924 39936 1
44441 39925 39938 1
44442 39940 39939 2
44443 39941 39940 1
44444 39942 39941 1
44445 39937 39939 1
44446 39936 39942 2
44447 39944 39943 1
44448 39945 39944 1
44449 39946 39945 2
44450 39940 39943 1
44451 39939 39946 1
44452 39948 39947 1
44453 39949 39948 1
44454 39950 39949 1
44455 39946 39947 1
44456 39945 39950 1
44457 39952 39951 1
44458 39938 39952 1
44459 39935 39951 1
44460 39954 39953 1
44461 39955 39954 1
44462 39951 39955 1
44463 39934 39953 1
44464 39957 39956 1
44465 39958 39957 1
44466 39959 39958 1
44467 39954 39956 1
44468 39953 39959 1
44469 39961 39960 1
44470 39962 39961 1
44471 39963 39962 1
44472 39958 39960 1
44473 39957 39963 1
44474 39965 39964 1
44475 39966 39965 1
44476 39967 39966 1
44477 39962 39964 1
44478 39961 39967 1
44479 39969 39968 1
44480 39933 39969 1
44481 39959 39968 1
44482 39971 39970 1
44483 39968 39971 1
44484 39960 39970 1
44485 39973 39972 1
44486 39970 39973 1
44487 39967 39972 1
44488 39975 39974 1
44489 39976 39975 1
44490 39972 39976 1
44491 39966 39974 1
44492 39978 39977 1
44493 39979 39978 1
44494 39980 39979 1
44495 39965 39977 1
44496 39964 39980 1
44497 39982 39981 1
44498 39983 39982 1
44499 39984 39983 1
44500 39979 39981 1
44501 39978 39984 1
44502 39986 39985 1
44503 39987 39986 1
44504 39988 39987 1
44505 39984 39985 1
44506 39983 39988 1
44507 39990 39989 1
44508 39991 39990 1
44509 39973 39991 1
44510 39971 39989 1
44511 39993 39992 1
44512 39994 39993 1
44513 39995 39994 1
44514 39990 39992 1
44515 39989 39995 1
44516 39997 39996 1
44517 39998 39997 1
44518 39999 39998 1
44519 39994 39996 1
44520 39993 39999 1
44521 40001 40000 1
44522 39991 40001 1
44523 39976 40000 1
44524 40003 40002 1
44525 40004 40003 1
44526 40000 40004 1
44527 39975 40002 1
44528 40006 40005 1
44529 40007 40006 1
44530 39974 40007 1
44531 40002 40005 1
44532 40009 40008 1
44533 40010 40009 1
44534 40003 40008 1
44535 40005 40010 1
44536 40012 40011 1
44537 40013 40012 1
44538 40006 40011 1
44539 40010 40013 1
44540 40015 40014 1
44541 40016 40015 1
44542 40017 40016 1
44543 40012 40014 1
44544 40011 40017 1
44545 40019 40018 1
44546 40020 40019 1
44547 40009 40020 1
44548 40013 40018 1
44549 40014 40021 1
44550 40018 40022 1
44551 40021 40022 1
44552 39948 40023 1
44553 40023 40024 1
44554 40023 40025 1
44555 39980 40026 1
44556 40028 40027 1
44557 40029 40028 1
44558 40030 40029 1
44559 40020 40027 1
44560 40019 40030 1
44561 40032 40031 1
44562 40033 40032 1
44563 40034 40033 1
44564 40030 40031 1
44565 40029 40034 1
44566 40036 40035 1
44567 40037 40036 1
44568 40038 40037 1
44569 40033 40035 1
44570 40032 40038 1
44571 40040 40039 1
44572 40041 40040 1
44573 40031 40041 1
44574 40038 40039 1
44575 40043 40042 1
44576 40044 40043 1
44577 40037 40044 1
44578 40039 40042 1
44579 40046 40045 1
44580 40040 40046 1
44581 40022 40041 1
44582 40021 40045 1
44583 40048 40047 1
44584 40046 40048 1
44585 40042 40047 1
44586 40050 40049 1
44587 40051 40050 1
44588 40052 40051 1
44589 40048 40049 1
44590 40047 40052 1
44591 40052 40053 2
44592 39907 40054 1
44593 39907 40055 1
44594 39908 40056 1
44595 39908 40057 1
44596 39909 40058 1
44597 39910 40059 1
44598 39911 40060 1
44599 39911 40061 1
44600 39913 40062 1
44601 39914 40063 1
44602 39915 40064 1
44603 39915 40065 1
44604 39916 40066 1
44605 39916 40067 1
44606 39918 40068 1
44607 39919 40069 1
44608 39920 40070 1
44609 39920 40071 1
44610 39924 40072 1
44611 39929 40073 1
44612 39929 40074 1
44613 39930 40075 1
44614 39930 40076 1
44615 39931 40077 1
44616 39941 40079 1
44617 39941 40080 1
44618 39942 40081 1
44619 39943 40082 1
44620 39943 40083 1
44621 39944 40084 1
44622 39944 40085 1
44623 39947 40086 1
44624 39947 40087 1
44625 39948 40088 1
44626 39949 40089 1
44627 39949 40090 1
44628 39950 40091 1
44629 39950 40092 1
44630 39952 40093 1
44631 39956 40094 1
44632 39963 40095 1
44633 39969 40096 1
44634 39978 40097 1
44635 39979 40098 1
44636 39980 40099 1
44637 39981 40100 1
44638 39981 40101 1
44639 39982 40102 1
44640 39982 40103 1
44641 39983 40104 1
44642 39984 40105 1
44643 39985 40106 1
44644 39985 40107 1
44645 39986 40108 1
44646 39986 40109 1
44647 39987 40110 1
44648 39987 40111 1
44649 39988 40112 1
44650 39993 40113 1
44651 39994 40114 1
44652 39996 40115 1
44653 39996 40116 1
44654 39997 40117 1
44655 39997 40118 1
44656 39998 40119 1
44657 39998 40120 1
44658 39999 40121 1
44659 39999 40122 1
44660 40001 40123 1
44661 40004 40124 1
44662 40007 40125 1
44663 40011 40126 1
44664 40012 40127 1
44665 40014 40128 1
44666 40015 40129 1
44667 40015 40130 1
44668 40016 40131 1
44669 40016 40132 1
44670 40017 40133 1
44671 40017 40134 1
44672 40023 40135 1
44673 40024 40136 1
44674 40024 40137 1
44675 40024 40138 1
44676 40025 40139 1
44677 40025 40140 1
44678 40025 40141 1
44679 40026 40142 1
44680 40027 40143 1
44681 40028 40144 1
44682 40034 40145 1
44683 40035 40146 1
44684 40036 40147 1
44685 40043 40148 1
44686 40044 40149 1
44687 40045 40150 1
44688 40049 40151 1
44689 40049 40152 1
44690 40050 40153 1
44691 40050 40154 1
44692 40051 40155 1
44693 40051 40156 1
44694 39937 40078 1
44695 40159 40158 1
44696 40160 40159 1
44697 40161 40160 1
44698 40162 40161 1
44699 40157 40158 1
44700 40157 40162 1
44701 40164 40163 1
44702 40165 40164 1
44703 40166 40165 1
44704 40160 40163 1
44705 40159 40166 1
44706 40168 40167 1
44707 40169 40168 1
44708 40170 40169 1
44709 40164 40167 1
44710 40163 40170 1
44711 40172 40171 1
44712 40173 40172 1
44713 40174 40173 1
44714 40169 40171 1
44715 40168 40174 1
44716 40176 40175 1
44717 40177 40176 1
44718 40178 40177 1
44719 40173 40175 1
44720 40172 40178 1
44721 40180 40179 1
44722 40181 40180 1
44723 40171 40181 2
44724 40178 40179 1
44725 40183 40182 1
44726 40184 40183 1
44727 40185 40184 1
44728 40177 40182 1
44729 40176 40185 1
44730 40187 40186 1
44731 40188 40187 1
44732 40174 40186 1
44733 40175 40188 1
44734 40190 40189 2
44735 40191 40190 1
44736 40192 40191 1
44737 40187 40189 1
44738 40186 40192 2
44739 40194 40193 1
44740 40195 40194 1
44741 40196 40195 2
44742 40190 40193 1
44743 40189 40196 1
44744 40198 40197 1
44745 40199 40198 1
44746 40200 40199 1
44747 40196 40197 1
44748 40195 40200 1
44749 40202 40201 1
44750 40188 40202 1
44751 40185 40201 1
44752 40204 40203 1
44753 40205 40204 1
44754 40201 40205 1
44755 40184 40203 1
44756 40207 40206 1
44757 40208 40207 1
44758 40209 40208 1
44759 40204 40206 1
44760 40203 40209 1
44761 40211 40210 1
44762 40212 40211 1
44763 40213 40212 1
44764 40208 40210 1
44765 40207 40213 1
44766 40215 40214 1
44767 40216 40215 1
44768 40217 40216 1
44769 40212 40214 1
44770 40211 40217 1
44771 40219 40218 1
44772 40183 40219 1
44773 40209 40218 1
44774 40221 40220 1
44775 40218 40221 1
44776 40210 40220 1
44777 40223 40222 1
44778 40220 40223 1
44779 40217 40222 1
44780 40225 40224 1
44781 40226 40225 1
44782 40222 40226 1
44783 40216 40224 1
44784 40228 40227 1
44785 40229 40228 1
44786 40230 40229 1
44787 40215 40227 1
44788 40214 40230 1
44789 40232 40231 1
44790 40233 40232 1
44791 40234 40233 1
44792 40229 40231 1
44793 40228 40234 1
44794 40236 40235 1
44795 40237 40236 1
44796 40238 40237 1
44797 40234 40235 1
44798 40233 40238 1
44799 40240 40239 1
44800 40241 40240 1
44801 40223 40241 1
44802 40221 40239 1
44803 40243 40242 1
44804 40244 40243 1
44805 40245 40244 1
44806 40240 40242 1
44807 40239 40245 1
44808 40247 40246 1
44809 40248 40247 1
44810 40249 40248 1
44811 40244 40246 1
44812 40243 40249 1
44813 40251 40250 1
44814 40241 40251 1
44815 40226 40250 1
44816 40253 40252 1
44817 40254 40253 1
44818 40250 40254 1
44819 40225 40252 1
44820 40256 40255 1
44821 40257 40256 1
44822 40224 40257 1
44823 40252 40255 1
44824 40259 40258 1
44825 40260 40259 1
44826 40253 40258 1
44827 40255 40260 1
44828 40262 40261 1
44829 40263 40262 1
44830 40256 40261 1
44831 40260 40263 1
44832 40265 40264 1
44833 40266 40265 1
44834 40267 40266 1
44835 40262 40264 1
44836 40261 40267 1
44837 40269 40268 1
44838 40270 40269 1
44839 40259 40270 1
44840 40263 40268 1
44841 40264 40271 1
44842 40268 40272 1
44843 40271 40272 1
44844 40198 40273 1
44845 40273 40274 1
44846 40273 40275 1
44847 40230 40276 1
44848 40278 40277 1
44849 40279 40278 1
44850 40280 40279 1
44851 40270 40277 1
44852 40269 40280 1
44853 40282 40281 1
44854 40283 40282 1
44855 40284 40283 1
44856 40280 40281 1
44857 40279 40284 1
44858 40286 40285 1
44859 40287 40286 1
44860 40288 40287 1
44861 40283 40285 1
44862 40282 40288 1
44863 40290 40289 1
44864 40291 40290 1
44865 40281 40291 1
44866 40288 40289 1
44867 40293 40292 1
44868 40294 40293 1
44869 40287 40294 1
44870 40289 40292 1
44871 40296 40295 1
44872 40290 40296 1
44873 40272 40291 1
44874 40271 40295 1
44875 40298 40297 1
44876 40296 40298 1
44877 40292 40297 1
44878 40300 40299 1
44879 40301 40300 1
44880 40302 40301 1
44881 40298 40299 1
44882 40297 40302 1
44883 40302 40303 2
44884 40157 40304 1
44885 40157 40305 1
44886 40158 40306 1
44887 40158 40307 1
44888 40159 40308 1
44889 40160 40309 1
44890 40161 40310 1
44891 40161 40311 1
44892 40163 40312 1
44893 40164 40313 1
44894 40165 40314 1
44895 40165 40315 1
44896 40166 40316 1
44897 40166 40317 1
44898 40168 40318 1
44899 40169 40319 1
44900 40170 40320 1
44901 40170 40321 1
44902 40174 40322 1
44903 40179 40323 1
44904 40179 40324 1
44905 40180 40325 1
44906 40180 40326 1
44907 40181 40327 1
44908 40191 40329 1
44909 40191 40330 1
44910 40192 40331 1
44911 40193 40332 1
44912 40193 40333 1
44913 40194 40334 1
44914 40194 40335 1
44915 40197 40336 1
44916 40197 40337 1
44917 40198 40338 1
44918 40199 40339 1
44919 40199 40340 1
44920 40200 40341 1
44921 40200 40342 1
44922 40202 40343 1
44923 40206 40344 1
44924 40213 40345 1
44925 40219 40346 1
44926 40228 40347 1
44927 40229 40348 1
44928 40230 40349 1
44929 40231 40350 1
44930 40231 40351 1
44931 40232 40352 1
44932 40232 40353 1
44933 40233 40354 1
44934 40234 40355 1
44935 40235 40356 1
44936 40235 40357 1
44937 40236 40358 1
44938 40236 40359 1
44939 40237 40360 1
44940 40237 40361 1
44941 40238 40362 1
44942 40243 40363 1
44943 40244 40364 1
44944 40246 40365 1
44945 40246 40366 1
44946 40247 40367 1
44947 40247 40368 1
44948 40248 40369 1
44949 40248 40370 1
44950 40249 40371 1
44951 40249 40372 1
44952 40251 40373 1
44953 40254 40374 1
44954 40257 40375 1
44955 40261 40376 1
44956 40262 40377 1
44957 40264 40378 1
44958 40265 40379 1
44959 40265 40380 1
44960 40266 40381 1
44961 40266 40382 1
44962 40267 40383 1
44963 40267 40384 1
44964 40273 40385 1
44965 40274 40386 1
44966 40274 40387 1
44967 40274 40388 1
44968 40275 40389 1
44969 40275 40390 1
44970 40275 40391 1
44971 40276 40392 1
44972 40277 40393 1
44973 40278 40394 1
44974 40284 40395 1
44975 40285 40396 1
44976 40286 40397 1
44977 40293 40398 1
44978 40294 40399 1
44979 40295 40400 1
44980 40299 40401 1
44981 40299 40402 1
44982 40300 40403 1
44983 40300 40404 1
44984 40301 40405 1
44985 40301 40406 1
44986 40187 40328 1
44987 40409 40408 1
44988 40410 40409 1
44989 40411 40410 1
44990 40412 40411 1
44991 40407 40408 1
44992 40407 40412 1
44993 40414 40413 1
44994 40415 40414 1
44995 40416 40415 1
44996 40410 40413 1
44997 40409 40416 1
44998 40418 40417 1
44999 40419 40418 1
45000 40420 40419 1
45001 40414 40417 1
45002 40413 40420 1
45003 40422 40421 1
45004 40423 40422 1
45005 40424 40423 1
45006 40419 40421 1
45007 40418 40424 1
45008 40426 40425 1
45009 40427 40426 1
45010 40428 40427 1
45011 40423 40425 1
45012 40422 40428 1
45013 40430 40429 1
45014 40431 40430 1
45015 40421 40431 2
45016 40428 40429 1
45017 40433 40432 1
45018 40434 40433 1
45019 40435 40434 1
45020 40427 40432 1
45021 40426 40435 1
45022 40437 40436 1
45023 40438 40437 1
45024 40424 40436 1
45025 40425 40438 1
45026 40440 40439 2
45027 40441 40440 1
45028 40442 40441 1
45029 40437 40439 1
45030 40436 40442 2
45031 40444 40443 1
45032 40445 40444 1
45033 40446 40445 2
45034 40440 40443 1
45035 40439 40446 1
45036 40448 40447 1
45037 40449 40448 1
45038 40450 40449 1
45039 40446 40447 1
45040 40445 40450 1
45041 40452 40451 1
45042 40438 40452 1
45043 40435 40451 1
45044 40454 40453 1
45045 40455 40454 1
45046 40451 40455 1
45047 40434 40453 1
45048 40457 40456 1
45049 40458 40457 1
45050 40459 40458 1
45051 40454 40456 1
45052 40453 40459 1
45053 40461 40460 1
45054 40462 40461 1
45055 40463 40462 1
45056 40458 40460 1
45057 40457 40463 1
45058 40465 40464 1
45059 40466 40465 1
45060 40467 40466 1
45061 40462 40464 1
45062 40461 40467 1
45063 40469 40468 1
45064 40433 40469 1
45065 40459 40468 1
45066 40471 40470 1
45067 40468 40471 1
45068 40460 40470 1
45069 40473 40472 1
45070 40470 40473 1
45071 40467 40472 1
45072 40475 40474 1
45073 40476 40475 1
45074 40472 40476 1
45075 40466 40474 1
45076 40478 40477 1
45077 40479 40478 1
45078 40480 40479 1
45079 40465 40477 1
45080 40464 40480 1
45081 40482 40481 1
45082 40483 40482 1
45083 40484 40483 1
45084 40479 40481 1
45085 40478 40484 1
45086 40486 40485 1
45087 40487 40486 1
45088 40488 40487 1
45089 40484 40485 1
45090 40483 40488 1
45091 40490 40489 1
45092 40491 40490 1
45093 40473 40491 1
45094 40471 40489 1
45095 40493 40492 1
45096 40494 40493 1
45097 40495 40494 1
45098 40490 40492 1
45099 40489 40495 1
45100 40497 40496 1
45101 40498 40497 1
45102 40499 40498 1
45103 40494 40496 1
45104 40493 40499 1
45105 40501 40500 1
45106 40491 40501 1
45107 40476 40500 1
45108 40503 40502 1
45109 40504 40503 1
45110 40500 40504 1
45111 40475 40502 1
45112 40506 40505 1
45113 40507 40506 1
45114 40474 40507 1
45115 40502 40505 1
45116 40509 40508 1
45117 40510 40509 1
45118 40503 40508 1
45119 40505 40510 1
45120 40512 40511 1
45121 40513 40512 1
45122 40506 40511 1
45123 40510 40513 1
45124 40515 40514 1
45125 40516 40515 1
45126 40517 40516 1
45127 40512 40514 1
45128 40511 40517 1
45129 40519 40518 1
45130 40520 40519 1
45131 40509 40520 1
45132 40513 40518 1
45133 40514 40521 1
45134 40518 40522 1
45135 40521 40522 1
45136 40448 40523 1
45137 40523 40524 1
45138 40523 40525 1
45139 40480 40526 1
45140 40528 40527 1
45141 40529 40528 1
45142 40530 40529 1
45143 40520 40527 1
45144 40519 40530 1
45145 40532 40531 1
45146 40533 40532 1
45147 40534 40533 1
45148 40530 40531 1
45149 40529 40534 1
45150 40536 40535 1
45151 40537 40536 1
45152 40538 40537 1
45153 40533 40535 1
45154 40532 40538 1
45155 40540 40539 1
45156 40541 40540 1
45157 40531 40541 1
45158 40538 40539 1
45159 40543 40542 1
45160 40544 40543 1
45161 40537 40544 1
45162 40539 40542 1
45163 40546 40545 1
45164 40540 40546 1
45165 40522 40541 1
45166 40521 40545 1
45167 40548 40547 1
45168 40546 40548 1
45169 40542 40547 1
45170 40550 40549 1
45171 40551 40550 1
45172 40552 40551 1
45173 40548 40549 1
45174 40547 40552 1
45175 40552 40553 2
45176 40407 40554 1
45177 40407 40555 1
45178 40408 40556 1
45179 40408 40557 1
45180 40409 40558 1
45181 40410 40559 1
45182 40411 40560 1
45183 40411 40561 1
45184 40413 40562 1
45185 40414 40563 1
45186 40415 40564 1
45187 40415 40565 1
45188 40416 40566 1
45189 40416 40567 1
45190 40418 40568 1
45191 40419 40569 1
45192 40420 40570 1
45193 40420 40571 1
45194 40424 40572 1
45195 40429 40573 1
45196 40429 40574 1
45197 40430 40575 1
45198 40430 40576 1
45199 40431 40577 1
45200 40441 40579 1
45201 40441 40580 1
45202 40442 40581 1
45203 40443 40582 1
45204 40443 40583 1
45205 40444 40584 1
45206 40444 40585 1
45207 40447 40586 1
45208 40447 40587 1
45209 40448 40588 1
45210 40449 40589 1
45211 40449 40590 1
45212 40450 40591 1
45213 40450 40592 1
45214 40452 40593 1
45215 40456 40594 1
45216 40463 40595 1
45217 40469 40596 1
45218 40478 40597 1
45219 40479 40598 1
45220 40480 40599 1
45221 40481 40600 1
45222 40481 40601 1
45223 40482 40602 1
45224 40482 40603 1
45225 40483 40604 1
45226 40484 40605 1
45227 40485 40606 1
45228 40485 40607 1
45229 40486 40608 1
45230 40486 40609 1
45231 40487 40610 1
45232 40487 40611 1
45233 40488 40612 1
45234 40493 40613 1
45235 40494 40614 1
45236 40496 40615 1
45237 40496 40616 1
45238 40497 40617 1
45239 40497 40618 1
45240 40498 40619 1
45241 40498 40620 1
45242 40499 40621 1
45243 40499 40622 1
45244 40501 40623 1
45245 40504 40624 1
45246 40507 40625 1
45247 40511 40626 1
45248 40512 40627 1
45249 40514 40628 1
45250 40515 40629 1
45251 40515 40630 1
45252 40516 40631 1
45253 40516 40632 1
45254 40517 40633 1
45255 40517 40634 1
45256 40523 40635 1
45257 40524 40636 1
45258 40524 40637 1
45259 40524 40638 1
45260 40525 40639 1
45261 40525 40640 1
45262 40525 40641 1
45263 40526 40642 1
45264 40527 40643 1
45265 40528 40644 1
45266 40534 40645 1
45267 40535 40646 1
45268 40536 40647 1
45269 40543 40648 1
45270 40544 40649 1
45271 40545 40650 1
45272 40549 40651 1
45273 40549 40652 1
45274 40550 40653 1
45275 40550 40654 1
45276 40551 40655 1
45277 40551 40656 1
45278 40437 40578 1
45279 40659 40658 1
45280 40660 40659 1
45281 40661 40660 1
45282 40662 40661 1
45283 40657 40658 1
45284 40657 40662 1
45285 40664 40663 1
45286 40665 40664 1
45287 40666 40665 1
45288 40660 40663 1
45289 40659 40666 1
45290 40668 40667 1
45291 40669 40668 1
45292 40670 40669 1
45293 40664 40667 1
45294 40663 40670 1
45295 40672 40671 1
45296 40673 40672 1
45297 40674 40673 1
45298 40669 40671 1
45299 40668 40674 1
45300 40676 40675 1
45301 40677 40676 1
45302 40678 40677 1
45303 40673 40675 1
45304 40672 40678 1
45305 40680 40679 1
45306 40681 40680 1
45307 40671 40681 2
45308 40678 40679 1
45309 40683 40682 1
45310 40684 40683 1
45311 40685 40684 1
45312 40677 40682 1
45313 40676 40685 1
45314 40687 40686 1
45315 40688 40687 1
45316 40674 40686 1
45317 40675 40688 1
45318 40690 40689 2
45319 40691 40690 1
45320 40692 40691 1
45321 40687 40689 1
45322 40686 40692 2
45323 40694 40693 1
45324 40695 40694 1
45325 40696 40695 2
45326 40690 40693 1
45327 40689 40696 1
45328 40698 40697 1
45329 40699 40698 1
45330 40700 40699 1
45331 40696 40697 1
45332 40695 40700 1
45333 40702 40701 1
45334 40688 40702 1
45335 40685 40701 1
45336 40704 40703 1
45337 40705 40704 1
45338 40701 40705 1
45339 40684 40703 1
45340 40707 40706 1
45341 40708 40707 1
45342 40709 40708 1
45343 40704 40706 1
45344 40703 40709 1
45345 40711 40710 1
45346 40712 40711 1
45347 40713 40712 1
45348 40708 40710 1
45349 40707 40713 1
45350 40715 40714 1
45351 40716 40715 1
45352 40717 40716 1
45353 40712 40714 1
45354 40711 40717 1
45355 40719 40718 1
45356 40683 40719 1
45357 40709 40718 1
45358 40721 40720 1
45359 40718 40721 1
45360 40710 40720 1
45361 40723 40722 1
45362 40720 40723 1
45363 40717 40722 1
45364 40725 40724 1
45365 40726 40725 1
45366 40722 40726 1
45367 40716 40724 1
45368 40728 40727 1
45369 40729 40728 1
45370 40730 40729 1
45371 40715 40727 1
45372 40714 40730 1
45373 40732 40731 1
45374 40733 40732 1
45375 40734 40733 1
45376 40729 40731 1
45377 40728 40734 1
45378 40736 40735 1
45379 40737 40736 1
45380 40738 40737 1
45381 40734 40735 1
45382 40733 40738 1
45383 40740 40739 1
45384 40741 40740 1
45385 40723 40741 1
45386 40721 40739 1
45387 40743 40742 1
45388 40744 40743 1
45389 40745 40744 1
45390 40740 40742 1
45391 40739 40745 1
45392 40747 40746 1
45393 40748 40747 1
45394 40749 40748 1
45395 40744 40746 1
45396 40743 40749 1
45397 40751 40750 1
45398 40741 40751 1
45399 40726 40750 1
45400 40753 40752 1
45401 40754 40753 1
45402 40750 40754 1
45403 40725 40752 1
45404 40756 40755 1
45405 40757 40756 1
45406 40724 40757 1
45407 40752 40755 1
45408 40759 40758 1
45409 40760 40759 1
45410 40753 40758 1
45411 40755 40760 1
45412 40762 40761 1
45413 40763 40762 1
45414 40756 40761 1
45415 40760 40763 1
45416 40765 40764 1
45417 40766 40765 1
45418 40767 40766 1
45419 40762 40764 1
45420 40761 40767 1
45421 40769 40768 1
45422 40770 40769 1
45423 40759 40770 1
45424 40763 40768 1
45425 40764 40771 1
45426 40768 40772 1
45427 40771 40772 1
45428 40698 40773 1
45429 40773 40774 1
45430 40773 40775 1
45431 40730 40776 1
45432 40778 40777 1
45433 40779 40778 1
45434 40780 40779 1
45435 40770 40777 1
45436 40769 40780 1
45437 40782 40781 1
45438 40783 40782 1
45439 40784 40783 1
45440 40780 40781 1
45441 40779 40784 1
45442 40786 40785 1
45443 40787 40786 1
45444 40788 40787 1
45445 40783 40785 1
45446 40782 40788 1
45447 40790 40789 1
45448 40791 40790 1
45449 40781 40791 1
45450 40788 40789 1
45451 40793 40792 1
45452 40794 40793 1
45453 40787 40794 1
45454 40789 40792 1
45455 40796 40795 1
45456 40790 40796 1
45457 40772 40791 1
45458 40771 40795 1
45459 40798 40797 1
45460 40796 40798 1
45461 40792 40797 1
45462 40800 40799 1
45463 40801 40800 1
45464 40802 40801 1
45465 40798 40799 1
45466 40797 40802 1
45467 40802 40803 2
45468 40657 40804 1
45469 40657 40805 1
45470 40658 40806 1
45471 40658 40807 1
45472 40659 40808 1
45473 40660 40809 1
45474 40661 40810 1
45475 40661 40811 1
45476 40663 40812 1
45477 40664 40813 1
45478 40665 40814 1
45479 40665 40815 1
45480 40666 40816 1
45481 40666 40817 1
45482 40668 40818 1
45483 40669 40819 1
45484 40670 40820 1
45485 40670 40821 1
45486 40674 40822 1
45487 40679 40823 1
45488 40679 40824 1
45489 40680 40825 1
45490 40680 40826 1
45491 40681 40827 1
45492 40691 40829 1
45493 40691 40830 1
45494 40692 40831 1
45495 40693 40832 1
45496 40693 40833 1
45497 40694 40834 1
45498 40694 40835 1
45499 40697 40836 1
45500 40697 40837 1
45501 40698 40838 1
45502 40699 40839 1
45503 40699 40840 1
45504 40700 40841 1
45505 40700 40842 1
45506 40702 40843 1
45507 40706 40844 1
45508 40713 40845 1
45509 40719 40846 1
45510 40728 40847 1
45511 40729 40848 1
45512 40730 40849 1
45513 40731 40850 1
45514 40731 40851 1
45515 40732 40852 1
45516 40732 40853 1
45517 40733 40854 1
45518 40734 40855 1
45519 40735 40856 1
45520 40735 40857 1
45521 40736 40858 1
45522 40736 40859 1
45523 40737 40860 1
45524 40737 40861 1
45525 40738 40862 1
45526 40743 40863 1
45527 40744 40864 1
45528 40746 40865 1
45529 40746 40866 1
45530 40747 40867 1
45531 40747 40868 1
45532 40748 40869 1
45533 40748 40870 1
45534 40749 40871 1
45535 40749 40872 1
45536 40751 40873 1
45537 40754 40874 1
45538 40757 40875 1
45539 40761 40876 1
45540 40762 40877 1
45541 40764 40878 1
45542 40765 40879 1
45543 40765 40880 1
45544 40766 40881 1
45545 40766 40882 1
45546 40767 40883 1
45547 40767 40884 1
45548 40773 40885 1
45549 40774 40886 1
45550 40774 40887 1
45551 40774 40888 1
45552 40775 40889 1
45553 40775 40890 1
45554 40775 40891 1
45555 40776 40892 1
45556 40777 40893 1
45557 40778 40894 1
45558 40784 40895 1
45559 40785 40896 1
45560 40786 40897 1
45561 40793 40898 1
45562 40794 40899 1
45563 40795 40900 1
45564 40799 40901 1
45565 40799 40902 1
45566 40800 40903 1
45567 40800 40904 1
45568 40801 40905 1
45569 40801 40906 1
45570 40687 40828 1
45571 40909 40908 1
45572 40910 40909 1
45573 40911 40910 1
45574 40912 40911 1
45575 40907 40908 1
45576 40907 40912 1
45577 40914 40913 1
45578 40915 40914 1
45579 40916 40915 1
45580 40910 40913 1
45581 40909 40916 1
45582 40918 40917 1
45583 40919 40918 1
45584 40920 40919 1
45585 40914 40917 1
45586 40913 40920 1
45587 40922 40921 1
45588 40923 40922 1
45589 40924 40923 1
45590 40919 40921 1
45591 40918 40924 1
45592 40926 40925 1
45593 40927 40926 1
45594 40928 40927 1
45595 40923 40925 1
45596 40922 40928 1
45597 40930 40929 1
45598 40931 40930 1
45599 40921 40931 2
45600 40928 40929 1
45601 40933 40932 1
45602 40934 40933 1
45603 40935 40934 1
45604 40927 40932 1
45605 40926 40935 1
45606 40937 40936 1
45607 40938 40937 1
45608 40924 40936 1
45609 40925 40938 1
45610 40940 40939 2
45611 40941 40940 1
45612 40942 40941 1
45613 40937 40939 1
45614 40936 40942 2
45615 40944 40943 1
45616 40945 40944 1
45617 40946 40945 2
45618 40940 40943 1
45619 40939 40946 1
45620 40948 40947 1
45621 40949 40948 1
45622 40950 40949 1
45623 40946 40947 1
45624 40945 40950 1
45625 40952 40951 1
45626 40938 40952 1
45627 40935 40951 1
45628 40954 40953 1
45629 40955 40954 1
45630 40951 40955 1
45631 40934 40953 1
45632 40957 40956 1
45633 40958 40957 1
45634 40959 40958 1
45635 40954 40956 1
45636 40953 40959 1
45637 40961 40960 1
45638 40962 40961 1
45639 40963 40962 1
45640 40958 40960 1
45641 40957 40963 1
45642 40965 40964 1
45643 40966 40965 1
45644 40967 40966 1
45645 40962 40964 1
45646 40961 40967 1
45647 40969 40968 1
45648 40933 40969 1
45649 40959 40968 1
45650 40971 40970 1
45651 40968 40971 1
45652 40960 40970 1
45653 40973 40972 1
45654 40970 40973 1
45655 40967 40972 1
45656 40975 40974 1
45657 40976 40975 1
45658 40972 40976 1
45659 40966 40974 1
45660 40978 40977 1
45661 40979 40978 1
45662 40980 40979 1
45663 40965 40977 1
45664 40964 40980 1
45665 40982 40981 1
45666 40983 40982 1
45667 40984 40983 1
45668 40979 40981 1
45669 40978 40984 1
45670 40986 40985 1
45671 40987 40986 1
45672 40988 40987 1
45673 40984 40985 1
45674 40983 40988 1
45675 40990 40989 1
45676 40991 40990 1
45677 40973 40991 1
45678 40971 40989 1
45679 40993 40992 1
45680 40994 40993 1
45681 40995 40994 1
45682 40990 40992 1
45683 40989 40995 1
45684 40997 40996 1
45685 40998 40997 1
45686 40999 40998 1
45687 40994 40996 1
45688 40993 40999 1
45689 41001 41000 1
45690 40991 41001 1
45691 40976 41000 1
45692 41003 41002 1
45693 41004 41003 1
45694 41000 41004 1
45695 40975 41002 1
45696 41006 41005 1
45697 41007 41006 1
45698 40974 41007 1
45699 41002 41005 1
45700 41009 41008 1
45701 41010 41009 1
45702 41003 41008 1
45703 41005 41010 1
45704 41012 41011 1
45705 41013 41012 1
45706 41006 41011 1
45707 41010 41013 1
45708 41015 41014 1
45709 41016 41015 1
45710 41017 41016 1
45711 41012 41014 1
45712 41011 41017 1
45713 41019 41018 1
45714 41020 41019 1
45715 41009 41020 1
45716 41013 41018 1
45717 41014 41021 1
45718 41018 41022 1
45719 41021 41022 1
45720 40948 41023 1
45721 41023 41024 1
45722 41023 41025 1
45723 40980 41026 1
45724 41028 41027 1
45725 41029 41028 1
45726 41030 41029 1
45727 41020 41027 1
45728 41019 41030 1
45729 41032 41031 1
45730 41033 41032 1
45731 41034 41033 1
45732 41030 41031 1
45733 41029 41034 1
45734 41036 41035 1
45735 41037 41036 1
45736 41038 41037 1
45737 41033 41035 1
45738 41032 41038 1
45739 41040 41039 1
45740 41041 41040 1
45741 41031 41041 1
45742 41038 41039 1
45743 41043 41042 1
45744 41044 41043 1
45745 41037 41044 1
45746 41039 41042 1
45747 41046 41045 1
45748 41040 41046 1
45749 41022 41041 1
45750 41021 41045 1
45751 41048 41047 1
45752 41046 41048 1
45753 41042 41047 1
45754 41050 41049 1
45755 41051 41050 1
45756 41052 41051 1
45757 41048 41049 1
45758 41047 41052 1
45759 41052 41053 2
45760 40907 41054 1
45761 40907 41055 1
45762 40908 41056 1
45763 40908 41057 1
45764 40909 41058 1
45765 40910 41059 1
45766 40911 41060 1
45767 40911 41061 1
45768 40913 41062 1
45769 40914 41063 1
45770 40915 41064 1
45771 40915 41065 1
45772 40916 41066 1
45773 40916 41067 1
45774 40918 41068 1
45775 40919 41069 1
45776 40920 41070 1
45777 40920 41071 1
45778 40924 41072 1
45779 40929 41073 1
45780 40929 41074 1
45781 40930 41075 1
45782 40930 41076 1
45783 40931 41077 1
45784 40941 41079 1
45785 40941 41080 1
45786 40942 41081 1
45787 40943 41082 1
45788 40943 41083 1
45789 40944 41084 1
45790 40944 41085 1
45791 40947 41086 1
45792 40947 41087 1
45793 40948 41088 1
45794 40949 41089 1
45795 40949 41090 1
45796 40950 41091 1
45797 40950 41092 1
45798 40952 41093 1
45799 40956 41094 1
45800 40963 41095 1
45801 40969 41096 1
45802 40978 41097 1
45803 40979 41098 1
45804 40980 41099 1
45805 40981 41100 1
45806 40981 41101 1
45807 40982 41102 1
45808 40982 41103 1
45809 40983 41104 1
45810 40984 41105 1
45811 40985 41106 1
45812 40985 41107 1
45813 40986 41108 1
45814 40986 41109 1
45815 40987 41110 1
45816 40987 41111 1
45817 40988 41112 1
45818 40993 41113 1
45819 40994 41114 1
45820 40996 41115 1
45821 40996 41116 1
45822 40997 41117 1
45823 40997 41118 1
45824 40998 41119 1
45825 40998 41120 1
45826 40999 41121 1
45827 40999 41122 1
45828 41001 41123 1
45829 41004 41124 1
45830 41007 41125 1
45831 41011 41126 1
45832 41012 41127 1
45833 41014 41128 1
45834 41015 41129 1
45835 41015 41130 1
45836 41016 41131 1
45837 41016 41132 1
45838 41017 41133 1
45839 41017 41134 1
45840 41023 41135 1
45841 41024 41136 1
45842 41024 41137 1
45843 41024 41138 1
45844 41025 41139 1
45845 41025 41140 1
45846 41025 41141 1
45847 41026 41142 1
45848 41027 41143 1
45849 41028 41144 1
45850 41034 41145 1
45851 41035 41146 1
45852 41036 41147 1
45853 41043 41148 1
45854 41044 41149 1
45855 41045 41150 1
45856 41049 41151 1
45857 41049 41152 1
45858 41050 41153 1
45859 41050 41154 1
45860 41051 41155 1
45861 41051 41156 1
45862 40937 41078 1
45863 41159 41158 1
45864 41160 41159 1
45865 41161 41160 1
45866 41162 41161 1
45867 41157 41158 1
45868 41157 41162 1
45869 41164 41163 1
45870 41165 41164 1
45871 41166 41165 1
45872 41160 41163 1
45873 41159 41166 1
45874 41168 41167 1
45875 41169 41168 1
45876 41170 41169 1
45877 41164 41167 1
45878 41163 41170 1
45879 41172 41171 1
45880 41173 41172 1
45881 41174 41173 1
45882 41169 41171 1
45883 41168 41174 1
45884 41176 41175 1
45885 41177 41176 1
45886 41178 41177 1
45887 41173 41175 1
45888 41172 41178 1
45889 41180 41179 1
45890 41181 41180 1
45891 41171 41181 2
45892 41178 41179 1
45893 41183 41182 1
45894 41184 41183 1
45895 41185 41184 1
45896 41177 41182 1
45897 41176 41185 1
45898 41187 41186 1
45899 41188 41187 1
45900 41174 41186 1
45901 41175 41188 1
45902 41190 41189 2
45903 41191 41190 1
45904 41192 41191 1
45905 41187 41189 1
45906 41186 41192 2
45907 41194 41193 1
45908 41195 41194 1
45909 41196 41195 2
45910 41190 41193 1
45911 41189 41196 1
45912 41198 41197 1
45913 41199 41198 1
45914 41200 41199 1
45915 41196 41197 1
45916 41195 41200 1
45917 41202 41201 1
45918 41188 41202 1
45919 41185 41201 1
45920 41204 41203 1
45921 41205 41204 1
45922 41201 41205 1
45923 41184 41203 1
45924 41207 41206 1
45925 41208 41207 1
45926 41209 41208 1
45927 41204 41206 1
45928 41203 41209 1
45929 41211 41210 1
45930 41212 41211 1
45931 41213 41212 1
45932 41208 41210 1
45933 41207 41213 1
45934 41215 41214 1
45935 41216 41215 1
45936 41217 41216 1
45937 41212 41214 1
45938 41211 41217 1
45939 41219 41218 1
45940 41183 41219 1
45941 41209 41218 1
45942 41221 41220 1
45943 41218 41221 1
45944 41210 41220 1
45945 41223 41222 1
45946 41220 41223 1
45947 41217 41222 1
45948 41225 41224 1
45949 41226 41225 1
45950 41222 41226 1
45951 41216 41224 1
45952 41228 41227 1
45953 41229 41228 1
45954 41230 41229 1
45955 41215 41227 1
45956 41214 41230 1
45957 41232 41231 1
45958 41233 41232 1
45959 41234 41233 1
45960 41229 41231 1
45961 41228 41234 1
45962 41236 41235 1
45963 41237 41236 1
45964 41238 41237 1
45965 41234 41235 1
45966 41233 41238 1
45967 41240 41239 1
45968 41241 41240 1
45969 41223 41241 1
45970 41221 41239 1
45971 41243 41242 1
45972 41244 41243 1
45973 41245 41244 1
45974 41240 41242 1
45975 41239 41245 1
45976 41247 41246 1
45977 41248 41247 1
45978 41249 41248 1
45979 41244 41246 1
45980 41243 41249 1
45981 41251 41250 1
45982 41241 41251 1
45983 41226 41250 1
45984 41253 41252 1
45985 41254 41253 1
45986 41250 41254 1
45987 41225 41252 1
45988 41256 41255 1
45989 41257 41256 1
45990 41224 41257 1
45991 41252 41255 1
45992 41259 41258 1
45993 41260 41259 1
45994 41253 41258 1
45995 41255 41260 1
45996 41262 41261 1
45997 41263 41262 1
45998 41256 41261 1
45999 41260 41263 1
46000 41265 41264 1
46001 41266 41265 1
46002 41267 41266 1
46003 41262 41264 1
46004 41261 41267 1
46005 41269 41268 1
46006 41270 41269 1
46007 41259 41270 1
46008 41263 41268 1
46009 41264 41271 1
46010 41268 41272 1
46011 41271 41272 1
46012 41198 41273 1
46013 41273 41274 1
46014 41273 41275 1
46015 41230 41276 1
46016 41278 41277 1
46017 41279 41278 1
46018 41280 41279 1
46019 41270 41277 1
46020 41269 41280 1
46021 41282 41281 1
46022 41283 41282 1
46023 41284 41283 1
46024 41280 41281 1
46025 41279 41284 1
46026 41286 41285 1
46027 41287 41286 1
46028 41288 41287 1
46029 41283 41285 1
46030 41282 41288 1
46031 41290 41289 1
46032 41291 41290 1
46033 41281 41291 1
46034 41288 41289 1
46035 41293 41292 1
46036 41294 41293 1
46037 41287 41294 1
46038 41289 41292 1
46039 41296 41295 1
46040 41290 41296 1
46041 41272 41291 1
46042 41271 41295 1
46043 41298 41297 1
46044 41296 41298 1
46045 41292 41297 1
46046 41300 41299 1
46047 41301 41300 1
46048 41302 41301 1
46049 41298 41299 1
46050 41297 41302 1
46051 41302 41303 2
46052 41157 41304 1
46053 41157 41305 1
46054 41158 41306 1
46055 41158 41307 1
46056 41159 41308 1
46057 41160 41309 1
46058 41161 41310 1
46059 41161 41311 1
46060 41163 41312 1
46061 41164 41313 1
46062 41165 41314 1
46063 41165 41315 1
46064 41166 41316 1
46065 41166 41317 1
46066 41168 41318 1
46067 41169 41319 1
46068 41170 41320 1
46069 41170 41321 1
46070 41174 41322 1
46071 41179 41323 1
46072 41179 41324 1
46073 41180 41325 1
46074 41180 41326 1
46075 41181 41327 1
46076 41191 41329 1
46077 41191 41330 1
46078 41192 41331 1
46079 41193 41332 1
46080 41193 41333 1
46081 41194 41334 1
46082 41194 41335 1
46083 41197 41336 1
46084 41197 41337 1
46085 41198 41338 1
46086 41199 41339 1
46087 41199 41340 1
46088 41200 41341 1
46089 41200 41342 1
46090 41202 41343 1
46091 41206 41344 1
46092 41213 41345 1
46093 41219 41346 1
46094 41228 41347 1
46095 41229 41348 1
46096 41230 41349 1
46097 41231 41350 1
46098 41231 41351 1
46099 41232 41352 1
46100 41232 41353 1
46101 41233 41354 1
46102 41234 41355 1
46103 41235 41356 1
46104 41235 41357 1
46105 41236 41358 1
46106 41236 41359 1
46107 41237 41360 1
46108 41237 41361 1
46109 41238 41362 1
46110 41243 41363 1
46111 41244 41364 1
46112 41246 41365 1
46113 41246 41366 1
46114 41247 41367 1
46115 41247 41368 1
46116 41248 41369 1
46117 41248 41370 1
46118 41249 41371 1
46119 41249 41372 1
46120 41251 41373 1
46121 41254 41374 1
46122 41257 41375 1
46123 41261 41376 1
46124 41262 41377 1
46125 41264 41378 1
46126 41265 41379 1
46127 41265 41380 1
46128 41266 41381 1
46129 41266 41382 1
46130 41267 41383 1
46131 41267 41384 1
46132 41273 41385 1
46133 41274 41386 1
46134 41274 41387 1
46135 41274 41388 1
46136 41275 41389 1
46137 41275 41390 1
46138 41275 41391 1
46139 41276 41392 1
46140 41277 41393 1
46141 41278 41394 1
46142 41284 41395 1
46143 41285 41396 1
46144 41286 41397 1
46145 41293 41398 1
46146 41294 41399 1
46147 41295 41400 1
46148 41299 41401 1
46149 41299 41402 1
46150 41300 41403 1
46151 41300 41404 1
46152 41301 41405 1
46153 41301 41406 1
46154 41187 41328 1
46155 41409 41408 1
46156 41410 41409 1
46157 41411 41410 1
46158 41412 41411 1
46159 41407 41408 1
46160 41407 41412 1
46161 41414 41413 1
46162 41415 41414 1
46163 41416 41415 1
46164 41410 41413 1
46165 41409 41416 1
46166 41418 41417 1
46167 41419 41418 1
46168 41420 41419 1
46169 41414 41417 1
46170 41413 41420 1
46171 41422 41421 1
46172 41423 41422 1
46173 41424 41423 1
46174 41419 41421 1
46175 41418 41424 1
46176 41426 41425 1
46177 41427 41426 1
46178 41428 41427 1
46179 41423 41425 1
46180 41422 41428 1
46181 41430 41429 1
46182 41431 41430 1
46183 41421 41431 2
46184 41428 41429 1
46185 41433 41432 1
46186 41434 41433 1
46187 41435 41434 1
46188 41427 41432 1
46189 41426 41435 1
46190 41437 41436 1
46191 41438 41437 1
46192 41424 41436 1
46193 41425 41438 1
46194 41440 41439 2
46195 41441 41440 1
46196 41442 41441 1
46197 41437 41439 1
46198 41436 41442 2
46199 41444 41443 1
46200 41445 41444 1
46201 41446 41445 2
46202 41440 41443 1
46203 41439 41446 1
46204 41448 41447 1
46205 41449 41448 1
46206 41450 41449 1
46207 41446 41447 1
46208 41445 41450 1
46209 41452 41451 1
46210 41438 41452 1
46211 41435 41451 1
46212 41454 41453 1
46213 41455 41454 1
46214 41451 41455 1
46215 41434 41453 1
46216 41457 41456 1
46217 41458 41457 1
46218 41459 41458 1
46219 41454 41456 1
46220 41453 41459 1
46221 41461 41460 1
46222 41462 41461 1
46223 41463 41462 1
46224 41458 41460 1
46225 41457 41463 1
46226 41465 41464 1
46227 41466 41465 1
46228 41467 41466 1
46229 41462 41464 1
46230 41461 41467 1
46231 41469 41468 1
46232 41433 41469 1
46233 41459 41468 1
46234 41471 41470 1
46235 41468 41471 1
46236 41460 41470 1
46237 41473 41472 1
46238 41470 41473 1
46239 41467 41472 1
46240 41475 41474 1
46241 41476 41475 1
46242 41472 41476 1
46243 41466 41474 1
46244 41478 41477 1
46245 41479 41478 1
46246 41480 41479 1
46247 41465 41477 1
46248 41464 41480 1
46249 41482 41481 1
46250 41483 41482 1
46251 41484 41483 1
46252 41479 41481 1
46253 41478 41484 1
46254 41486 41485 1
46255 41487 41486 1
46256 41488 41487 1
46257 41484 41485 1
46258 41483 41488 1
46259 41490 41489 1
46260 41491 41490 1
46261 41473 41491 1
46262 41471 41489 1
46263 41493 41492 1
46264 41494 41493 1
46265 41495 41494 1
46266 41490 41492 1
46267 41489 41495 1
46268 41497 41496 1
46269 41498 41497 1
46270 41499 41498 1
46271 41494 41496 1
46272 41493 41499 1
46273 41501 41500 1
46274 41491 41501 1
46275 41476 41500 1
46276 41503 41502 1
46277 41504 41503 1
46278 41500 41504 1
46279 41475 41502 1
46280 41506 41505 1
46281 41507 41506 1
46282 41474 41507 1
46283 41502 41505 1
46284 41509 41508 1
46285 41510 41509 1
46286 41503 41508 1
46287 41505 41510 1
46288 41512 41511 1
46289 41513 41512 1
46290 41506 41511 1
46291 41510 41513 1
46292 41515 41514 1
46293 41516 41515 1
46294 41517 41516 1
46295 41512 41514 1
46296 41511 41517 1
46297 41519 41518 1
46298 41520 41519 1
46299 41509 41520 1
46300 41513 41518 1
46301 41514 41521 1
46302 41518 41522 1
46303 41521 41522 1
46304 41448 41523 1
46305 41523 41524 1
46306 41523 41525 1
46307 41480 41526 1
46308 41528 41527 1
46309 41529 41528 1
46310 41530 41529 1
46311 41520 41527 1
46312 41519 41530 1
46313 41532 41531 1
46314 41533 41532 1
46315 41534 41533 1
46316 41530 41531 1
46317 41529 41534 1
46318 41536 41535 1
46319 41537 41536 1
46320 41538 41537 1
46321 41533 41535 1
46322 41532 41538 1
46323 41540 41539 1
46324 41541 41540 1
46325 41531 41541 1
46326 41538 41539 1
46327 41543 41542 1
46328 41544 41543 1
46329 41537 41544 1
46330 41539 41542 1
46331 41546 41545 1
46332 41540 41546 1
46333 41522 41541 1
46334 41521 41545 1
46335 41548 41547 1
46336 41546 41548 1
46337 41542 41547 1
46338 41550 41549 1
46339 41551 41550 1
46340 41552 41551 1
46341 41548 41549 1
46342 41547 41552 1
46343 41552 41553 2
46344 41407 41554 1
46345 41407 41555 1
46346 41408 41556 1
46347 41408 41557 1
46348 41409 41558 1
46349 41410 41559 1
46350 41411 41560 1
46351 41411 41561 1
46352 41413 41562 1
46353 41414 41563 1
46354 41415 41564 1
46355 41415 41565 1
46356 41416 41566 1
46357 41416 41567 1
46358 41418 41568 1
46359 41419 41569 1
46360 41420 41570 1
46361 41420 41571 1
46362 41424 41572 1
46363 41429 41573 1
46364 41429 41574 1
46365 41430 41575 1
46366 41430 41576 1
46367 41431 41577 1
46368 41441 41579 1
46369 41441 41580 1
46370 41442 41581 1
46371 41443 41582 1
46372 41443 41583 1
46373 41444 41584 1
46374 41444 41585 1
46375 41447 41586 1
46376 41447 41587 1
46377 41448 41588 1
46378 41449 41589 1
46379 41449 41590 1
46380 41450 41591 1
46381 41450 41592 1
46382 41452 41593 1
46383 41456 41594 1
46384 41463 41595 1
46385 41469 41596 1
46386 41478 41597 1
46387 41479 41598 1
46388 41480 41599 1
46389 41481 41600 1
46390 41481 41601 1
46391 41482 41602 1
46392 41482 41603 1
46393 41483 41604 1
46394 41484 41605 1
46395 41485 41606 1
46396 41485 41607 1
46397 41486 41608 1
46398 41486 41609 1
46399 41487 41610 1
46400 41487 41611 1
46401 41488 41612 1
46402 41493 41613 1
46403 41494 41614 1
46404 41496 41615 1
46405 41496 41616 1
46406 41497 41617 1
46407 41497 41618 1
46408 41498 41619 1
46409 41498 41620 1
46410 41499 41621 1
46411 41499 41622 1
46412 41501 41623 1
46413 41504 41624 1
46414 41507 41625 1
46415 41511 41626 1
46416 41512 41627 1
46417 41514 41628 1
46418 41515 41629 1
46419 41515 41630 1
46420 41516 41631 1
46421 41516 41632 1
46422 41517 41633 1
46423 41517 41634 1
46424 41523 41635 1
46425 41524 41636 1
46426 41524 41637 1
46427 41524 41638 1
46428 41525 41639 1
46429 41525 41640 1
46430 41525 41641 1
46431 41526 41642 1
46432 41527 41643 1
46433 41528 41644 1
46434 41534 41645 1
46435 41535 41646 1
46436 41536 41647 1
46437 41543 41648 1
46438 41544 41649 1
46439 41545 41650 1
46440 41549 41651 1
46441 41549 41652 1
46442 41550 41653 1
46443 41550 41654 1
46444 41551 41655 1
46445 41551 41656 1
46446 41437 41578 1
46447 41659 41658 1
46448 41660 41659 1
46449 41661 41660 1
46450 41662 41661 1
46451 41657 41658 1
46452 41657 41662 1
46453 41664 41663 1
46454 41665 41664 1
46455 41666 41665 1
46456 41660 41663 1
46457 41659 41666 1
46458 41668 41667 1
46459 41669 41668 1
46460 41670 41669 1
46461 41664 41667 1
46462 41663 41670 1
46463 41672 41671 1
46464 41673 41672 1
46465 41674 41673 1
46466 41669 41671 1
46467 41668 41674 1
46468 41676 41675 1
46469 41677 41676 1
46470 41678 41677 1
46471 41673 41675 1
46472 41672 41678 1
46473 41680 41679 1
46474 41681 41680 1
46475 41671 41681 2
46476 41678 41679 1
46477 41683 41682 1
46478 41684 41683 1
46479 41685 41684 1
46480 41677 41682 1
46481 41676 41685 1
46482 41687 41686 1
46483 41688 41687 1
46484 41674 41686 1
46485 41675 41688 1
46486 41690 41689 2
46487 41691 41690 1
46488 41692 41691 1
46489 41687 41689 1
46490 41686 41692 2
46491 41694 41693 1
46492 41695 41694 1
46493 41696 41695 2
46494 41690 41693 1
46495 41689 41696 1
46496 41698 41697 1
46497 41699 41698 1
46498 41700 41699 1
46499 41696 41697 1
46500 41695 41700 1
46501 41702 41701 1
46502 41688 41702 1
46503 41685 41701 1
46504 41704 41703 1
46505 41705 41704 1
46506 41701 41705 1
46507 41684 41703 1
46508 41707 41706 1
46509 41708 41707 1
46510 41709 41708 1
46511 41704 41706 1
46512 41703 41709 1
46513 41711 41710 1
46514 41712 41711 1
46515 41713 41712 1
46516 41708 41710 1
46517 41707 41713 1
46518 41715 41714 1
46519 41716 41715 1
46520 41717 41716 1
46521 41712 41714 1
46522 41711 41717 1
46523 41719 41718 1
46524 41683 41719 1
46525 41709 41718 1
46526 41721 41720 1
46527 41718 41721 1
46528 41710 41720 1
46529 41723 41722 1
46530 41720 41723 1
46531 41717 41722 1
46532 41725 41724 1
46533 41726 41725 1
46534 41722 41726 1
46535 41716 41724 1
46536 41728 41727 1
46537 41729 41728 1
46538 41730 41729 1
46539 41715 41727 1
46540 41714 41730 1
46541 41732 41731 1
46542 41733 41732 1
46543 41734 41733 1
46544 41729 41731 1
46545 41728 41734 1
46546 41736 41735 1
46547 41737 41736 1
46548 41738 41737 1
46549 41734 41735 1
46550 41733 41738 1
46551 41740 41739 1
46552 41741 41740 1
46553 41723 41741 1
46554 41721 41739 1
46555 41743 41742 1
46556 41744 41743 1
46557 41745 41744 1
46558 41740 41742 1
46559 41739 41745 1
46560 41747 41746 1
46561 41748 41747 1
46562 41749 41748 1
46563 41744 41746 1
46564 41743 41749 1
46565 41751 41750 1
46566 41741 41751 1
46567 41726 41750 1
46568 41753 41752 1
46569 41754 41753 1
46570 41750 41754 1
46571 41725 41752 1
46572 41756 41755 1
46573 41757 41756 1
46574 41724 41757 1
46575 41752 41755 1
46576 41759 41758 1
46577 41760 41759 1
46578 41753 41758 1
46579 41755 41760 1
46580 41762 41761 1
46581 41763 41762 1
46582 41756 41761 1
46583 41760 41763 1
46584 41765 41764 1
46585 41766 41765 1
46586 41767 41766 1
46587 41762 41764 1
46588 41761 41767 1
46589 41769 41768 1
46590 41770 41769 1
46591 41759 41770 1
46592 41763 41768 1
46593 41764 41771 1
46594 41768 41772 1
46595 41771 41772 1
46596 41698 41773 1
46597 41773 41774 1
46598 41773 41775 1
46599 41730 41776 1
46600 41778 41777 1
46601 41779 41778 1
46602 41780 41779 1
46603 41770 41777 1
46604 41769 41780 1
46605 41782 41781 1
46606 41783 41782 1
46607 41784 41783 1
46608 41780 41781 1
46609 41779 41784 1
46610 41786 41785 1
46611 41787 41786 1
46612 41788 41787 1
46613 41783 41785 1
46614 41782 41788 1
46615 41790 41789 1
46616 41791 41790 1
46617 41781 41791 1
46618 41788 41789 1
46619 41793 41792 1
46620 41794 41793 1
46621 41787 41794 1
46622 41789 41792 1
46623 41796 41795 1
46624 41790 41796 1
46625 41772 41791 1
46626 41771 41795 1
46627 41798 41797 1
46628 41796 41798 1
46629 41792 41797 1
46630 41800 41799 1
46631 41801 41800 1
46632 41802 41801 1
46633 41798 41799 1
46634 41797 41802 1
46635 41802 41803 2
46636 41657 41804 1
46637 41657 41805 1
46638 41658 41806 1
46639 41658 41807 1
46640 41659 41808 1
46641 41660 41809 1
46642 41661 41810 1
46643 41661 41811 1
46644 41663 41812 1
46645 41664 41813 1
46646 41665 41814 1
46647 41665 41815 1
46648 41666 41816 1
46649 41666 41817 1
46650 41668 41818 1
46651 41669 41819 1
46652 41670 41820 1
46653 41670 41821 1
46654 41674 41822 1
46655 41679 41823 1
46656 41679 41824 1
46657 41680 41825 1
46658 41680 41826 1
46659 41681 41827 1
46660 41691 41829 1
46661 41691 41830 1
46662 41692 41831 1
46663 41693 41832 1
46664 41693 41833 1
46665 41694 41834 1
46666 41694 41835 1
46667 41697 41836 1
46668 41697 41837 1
46669 41698 41838 1
46670 41699 41839 1
46671 41699 41840 1
46672 41700 41841 1
46673 41700 41842 1
46674 41702 41843 1
46675 41706 41844 1
46676 41713 41845 1
46677 41719 41846 1
46678 41728 41847 1
46679 41729 41848 1
46680 41730 41849 1
46681 41731 41850 1
46682 41731 41851 1
46683 41732 41852 1
46684 41732 41853 1
46685 41733 41854 1
46686 41734 41855 1
46687 41735 41856 1
46688 41735 41857 1
46689 41736 41858 1
46690 41736 41859 1
46691 41737 41860 1
46692 41737 41861 1
46693 41738 41862 1
46694 41743 41863 1
46695 41744 41864 1
46696 41746 41865 1
46697 41746 41866 1
46698 41747 41867 1
46699 41747 41868 1
46700 41748 41869 1
46701 41748 41870 1
46702 41749 41871 1
46703 41749 41872 1
46704 41751 41873 1
46705 41754 41874 1
46706 41757 41875 1
46707 41761 41876 1
46708 41762 41877 1
46709 41764 41878 1
46710 41765 41879 1
46711 41765 41880 1
46712 41766 41881 1
46713 41766 41882 1
46714 41767 41883 1
46715 41767 41884 1
46716 41773 41885 1
46717 41774 41886 1
46718 41774 41887 1
46719 41774 41888 1
46720 41775 41889 1
46721 41775 41890 1
46722 41775 41891 1
46723 41776 41892 1
46724 41777 41893 1
46725 41778 41894 1
46726 41784 41895 1
46727 41785 41896 1
46728 41786 41897 1
46729 41793 41898 1
46730 41794 41899 1
46731 41795 41900 1
46732 41799 41901 1
46733 41799 41902 1
46734 41800 41903 1
46735 41800 41904 1
46736 41801 41905 1
46737 41801 41906 1
46738 41687 41828 1
46739 41909 41908 1
46740 41910 41909 1
46741 41911 41910 1
46742 41912 41911 1
46743 41907 41908 1
46744 41907 41912 1
46745 41914 41913 1
46746 41915 41914 1
46747 41916 41915 1
46748 41910 41913 1
46749 41909 41916 1
46750 41918 41917 1
46751 41919 41918 1
46752 41920 41919 1
46753 41914 41917 1
46754 41913 41920 1
46755 41922 41921 1
46756 41923 41922 1
46757 41924 41923 1
46758 41919 41921 1
46759 41918 41924 1
46760 41926 41925 1
46761 41927 41926 1
46762 41928 41927 1
46763 41923 41925 1
46764 41922 41928 1
46765 41930 41929 1
46766 41931 41930 1
46767 41921 41931 2
46768 41928 41929 1
46769 41933 41932 1
46770 41934 41933 1
46771 41935 41934 1
46772 41927 41932 1
46773 41926 41935 1
46774 41937 41936 1
46775 41938 41937 1
46776 41924 41936 1
46777 41925 41938 1
46778 41940 41939 2
46779 41941 41940 1
46780 41942 41941 1
46781 41937 41939 1
46782 41936 41942 2
46783 41944 41943 1
46784 41945 41944 1
46785 41946 41945 2
46786 41940 41943 1
46787 41939 41946 1
46788 41948 41947 1
46789 41949 41948 1
46790 41950 41949 1
46791 41946 41947 1
46792 41945 41950 1
46793 41952 41951 1
46794 41938 41952 1
46795 41935 41951 1
46796 41954 41953 1
46797 41955 41954 1
46798 41951 41955 1
46799 41934 41953 1
46800 41957 41956 1
46801 41958 41957 1
46802 41959 41958 1
46803 41954 41956 1
46804 41953 41959 1
46805 41961 41960 1
46806 41962 41961 1
46807 41963 41962 1
46808 41958 41960 1
46809 41957 41963 1
46810 41965 41964 1
46811 41966 41965 1
46812 41967 41966 1
46813 41962 41964 1
46814 41961 41967 1
46815 41969 41968 1
46816 41933 41969 1
46817 41959 41968 1
46818 41971 41970 1
46819 41968 41971 1
46820 41960 41970 1
46821 41973 41972 1
46822 41970 41973 1
46823 41967 41972 1
46824 41975 41974 1
46825 41976 41975 1
46826 41972 41976 1
46827 41966 41974 1
46828 41978 41977 1
46829 41979 41978 1
46830 41980 41979 1
46831 41965 41977 1
46832 41964 41980 1
46833 41982 41981 1
46834 41983 41982 1
46835 41984 41983 1
46836 41979 41981 1
46837 41978 41984 1
46838 41986 41985 1
46839 41987 41986 1
46840 41988 41987 1
46841 41984 41985 1
46842 41983 41988 1
46843 41990 41989 1
46844 41991 41990 1
46845 41973 41991 1
46846 41971 41989 1
46847 41993 41992 1
46848 41994 41993 1
46849 41995 41994 1
46850 41990 41992 1
46851 41989 41995 1
46852 41997 41996 1
46853 41998 41997 1
46854 41999 41998 1
46855 41994 41996 1
46856 41993 41999 1
46857 42001 42000 1
46858 41991 42001 1
46859 41976 42000 1
46860 42003 42002 1
46861 42004 42003 1
46862 42000 42004 1
46863 41975 42002 1
46864 42006 42005 1
46865 42007 42006 1
46866 41974 42007 1
46867 42002 42005 1
46868 42009 42008 1
46869 42010 42009 1
46870 42003 42008 1
46871 42005 42010 1
46872 42012 42011 1
46873 42013 42012 1
46874 42006 42011 1
46875 42010 42013 1
46876 42015 42014 1
46877 42016 42015 1
46878 42017 42016 1
46879 42012 42014 1
46880 42011 42017 1
46881 42019 42018 1
46882 42020 42019 1
46883 42009 42020 1
46884 42013 42018 1
46885 42014 42021 1
46886 42018 42022 1
46887 42021 42022 1
46888 41948 42023 1
46889 42023 42024 1
46890 42023 42025 1
46891 41980 42026 1
46892 42028 42027 1
46893 42029 42028 1
46894 42030 42029 1
46895 42020 42027 1
46896 42019 42030 1
46897 42032 42031 1
46898 42033 42032 1
46899 42034 42033 1
46900 42030 42031 1
46901 42029 42034 1
46902 42036 42035 1
46903 42037 42036 1
46904 42038 42037 1
46905 42033 42035 1
46906 42032 42038 1
46907 42040 42039 1
46908 42041 42040 1
46909 42031 42041 1
46910 42038 42039 1
46911 42043 42042 1
46912 42044 42043 1
46913 42037 42044 1
46914 42039 42042 1
46915 42046 42045 1
46916 42040 42046 1
46917 42022 42041 1
46918 42021 42045 1
46919 42048 42047 1
46920 42046 42048 1
46921 42042 42047 1
46922 42050 42049 1
46923 42051 42050 1
46924 42052 42051 1
46925 42048 42049 1
46926 42047 42052 1
46927 42052 42053 2
46928 41907 42054 1
46929 41907 42055 1
46930 41908 42056 1
46931 41908 42057 1
46932 41909 42058 1
46933 41910 42059 1
46934 41911 42060 1
46935 41911 42061 1
46936 41913 42062 1
46937 41914 42063 1
46938 41915 42064 1
46939 41915 42065 1
46940 41916 42066 1
46941 41916 42067 1
46942 41918 42068 1
46943 41919 42069 1
46944 41920 42070 1
46945 41920 42071 1
46946 41924 42072 1
46947 41929 42073 1
46948 41929 42074 1
46949 41930 42075 1
46950 41930 42076 1
46951 41931 42077 1
46952 41941 42079 1
46953 41941 42080 1
46954 41942 42081 1
46955 41943 42082 1
46956 41943 42083 1
46957 41944 42084 1
46958 41944 42085 1
46959 41947 42086 1
46960 41947 42087 1
46961 41948 42088 1
46962 41949 42089 1
46963 41949 42090 1
46964 41950 42091 1
46965 41950 42092 1
46966 41952 42093 1
46967 41956 42094 1
46968 41963 42095 1
46969 41969 42096 1
46970 41978 42097 1
46971 41979 42098 1
46972 41980 42099 1
46973 41981 42100 1
46974 41981 42101 1
46975 41982 42102 1
46976 41982 42103 1
46977 41983 42104 1
46978 41984 42105 1
46979 41985 42106 1
46980 41985 42107 1
46981 41986 42108 1
46982 41986 42109 1
46983 41987 42110 1
46984 41987 42111 1
46985 41988 42112 1
46986 41993 42113 1
46987 41994 42114 1
46988 41996 42115 1
46989 41996 42116 1
46990 41997 42117 1
46991 41997 42118 1
46992 41998 42119 1
46993 41998 42120 1
46994 41999 42121 1
46995 41999 42122 1
46996 42001 42123 1
46997 42004 42124 1
46998 42007 42125 1
46999 42011 42126 1
47000 42012 42127 1
47001 42014 42128 1
47002 42015 42129 1
47003 42015 42130 1
47004 42016 42131 1
47005 42016 42132 1
47006 42017 42133 1
47007 42017 42134 1
47008 42023 42135 1
47009 42024 42136 1
47010 42024 42137 1
47011 42024 42138 1
47012 42025 42139 1
47013 42025 42140 1
47014 42025 42141 1
47015 42026 42142 1
47016 42027 42143 1
47017 42028 42144 1
47018 42034 42145 1
47019 42035 42146 1
47020 42036 42147 1
47021 42043 42148 1
47022 42044 42149 1
47023 42045 42150 1
47024 42049 42151 1
47025 42049 42152 1
47026 42050 42153 1
47027 42050 42154 1
47028 42051 42155 1
47029 42051 42156 1
47030 41937 42078 1
47031 42159 42158 1
47032 42160 42159 1
47033 42161 42160 1
47034 42162 42161 1
47035 42157 42158 1
47036 42157 42162 1
47037 42164 42163 1
47038 42165 42164 1
47039 42166 42165 1
47040 42160 42163 1
47041 42159 42166 1
47042 42168 42167 1
47043 42169 42168 1
47044 42170 42169 1
47045 42164 42167 1
47046 42163 42170 1
47047 42172 42171 1
47048 42173 42172 1
47049 42174 42173 1
47050 42169 42171 1
47051 42168 42174 1
47052 42176 42175 1
47053 42177 42176 1
47054 42178 42177 1
47055 42173 42175 1
47056 42172 42178 1
47057 42180 42179 1
47058 42181 42180 1
47059 42171 42181 2
47060 42178 42179 1
47061 42183 42182 1
47062 42184 42183 1
47063 42185 42184 1
47064 42177 42182 1
47065 42176 42185 1
47066 42187 42186 1
47067 42188 42187 1
47068 42174 42186 1
47069 42175 42188 1
47070 42190 42189 2
47071 42191 42190 1
47072 42192 42191 1
47073 42187 42189 1
47074 42186 42192 2
47075 42194 42193 1
47076 42195 42194 1
47077 42196 42195 2
47078 42190 42193 1
47079 42189 42196 1
47080 42198 42197 1
47081 42199 42198 1
47082 42200 42199 1
47083 42196 42197 1
47084 42195 42200 1
47085 42202 42201 1
47086 42188 42202 1
47087 42185 42201 1
47088 42204 42203 1
47089 42205 42204 1
47090 42201 42205 1
47091 42184 42203 1
47092 42207 42206 1
47093 42208 42207 1
47094 42209 42208 1
47095 42204 42206 1
47096 42203 42209 1
47097 42211 42210 1
47098 42212 42211 1
47099 42213 42212 1
47100 42208 42210 1
47101 42207 42213 1
47102 42215 42214 1
47103 42216 42215 1
47104 42217 42216 1
47105 42212 42214 1
47106 42211 42217 1
47107 42219 42218 1
47108 42183 42219 1
47109 42209 42218 1
47110 42221 42220 1
47111 42218 42221 1
47112 42210 42220 1
47113 42223 42222 1
47114 42220 42223 1
47115 42217 42222 1
47116 42225 42224 1
47117 42226 42225 1
47118 42222 42226 1
47119 42216 42224 1
47120 42228 42227 1
47121 42229 42228 1
47122 42230 42229 1
47123 42215 42227 1
47124 42214 42230 1
47125 42232 42231 1
47126 42233 42232 1
47127 42234 42233 1
47128 42229 42231 1
47129 42228 42234 1
47130 42236 42235 1
47131 42237 42236 1
47132 42238 42237 1
47133 42234 42235 1
47134 42233 42238 1
47135 42240 42239 1
47136 42241 42240 1
47137 42223 42241 1
47138 42221 42239 1
47139 42243 42242 1
47140 42244 42243 1
47141 42245 42244 1
47142 42240 42242 1
47143 42239 42245 1
47144 42247 42246 1
47145 42248 42247 1
47146 42249 42248 1
47147 42244 42246 1
47148 42243 42249 1
47149 42251 42250 1
47150 42241 42251 1
47151 42226 42250 1
47152 42253 42252 1
47153 42254 42253 1
47154 42250 42254 1
47155 42225 42252 1
47156 42256 42255 1
47157 42257 42256 1
47158 42224 42257 1
47159 42252 42255 1
47160 42259 42258 1
47161 42260 42259 1
47162 42253 42258 1
47163 42255 42260 1
47164 42262 42261 1
47165 42263 42262 1
47166 42256 42261 1
47167 42260 42263 1
47168 42265 42264 1
47169 42266 42265 1
47170 42267 42266 1
47171 42262 42264 1
47172 42261 42267 1
47173 42269 42268 1
47174 42270 42269 1
47175 42259 42270 1
47176 42263 42268 1
47177 42264 42271 1
47178 42268 42272 1
47179 42271 42272 1
47180 42198 42273 1
47181 42273 42274 1
47182 42273 42275 1
47183 42230 42276 1
47184 42278 42277 1
47185 42279 42278 1
47186 42280 42279 1
47187 42270 42277 1
47188 42269 42280 1
47189 42282 42281 1
47190 42283 42282 1
47191 42284 42283 1
47192 42280 42281 1
47193 42279 42284 1
47194 42286 42285 1
47195 42287 42286 1
47196 42288 42287 1
47197 42283 42285 1
47198 42282 42288 1
47199 42290 42289 1
47200 42291 42290 1
47201 42281 42291 1
47202 42288 42289 1
47203 42293 42292 1
47204 42294 42293 1
47205 42287 42294 1
47206 42289 42292 1
47207 42296 42295 1
47208 42290 42296 1
47209 42272 42291 1
47210 42271 42295 1
47211 42298 42297 1
47212 42296 42298 1
47213 42292 42297 1
47214 42300 42299 1
47215 42301 42300 1
47216 42302 42301 1
47217 42298 42299 1
47218 42297 42302 1
47219 42302 42303 2
47220 42157 42304 1
47221 42157 42305 1
47222 42158 42306 1
47223 42158 42307 1
47224 42159 42308 1
47225 42160 42309 1
47226 42161 42310 1
47227 42161 42311 1
47228 42163 42312 1
47229 42164 42313 1
47230 42165 42314 1
47231 42165 42315 1
47232 42166 42316 1
47233 42166 42317 1
47234 42168 42318 1
47235 42169 42319 1
47236 42170 42320 1
47237 42170 42321 1
47238 42174 42322 1
47239 42179 42323 1
47240 42179 42324 1
47241 42180 42325 1
47242 42180 42326 1
47243 42181 42327 1
47244 42191 42329 1
47245 42191 42330 1
47246 42192 42331 1
47247 42193 42332 1
47248 42193 42333 1
47249 42194 42334 1
47250 42194 42335 1
47251 42197 42336 1
47252 42197 42337 1
47253 42198 42338 1
47254 42199 42339 1
47255 42199 42340 1
47256 42200 42341 1
47257 42200 42342 1
47258 42202 42343 1
47259 42206 42344 1
47260 42213 42345 1
47261 42219 42346 1
47262 42228 42347 1
47263 42229 42348 1
47264 42230 42349 1
47265 42231 42350 1
47266 42231 42351 1
47267 42232 42352 1
47268 42232 42353 1
47269 42233 42354 1
47270 42234 42355 1
47271 42235 42356 1
47272 42235 42357 1
47273 42236 42358 1
47274 42236 42359 1
47275 42237 42360 1
47276 42237 42361 1
47277 42238 42362 1
47278 42243 42363 1
47279 42244 42364 1
47280 42246 42365 1
47281 42246 42366 1
47282 42247 42367 1
47283 42247 42368 1
47284 42248 42369 1
47285 42248 42370 1
47286 42249 42371 1
47287 42249 42372 1
47288 42251 42373 1
47289 42254 42374 1
47290 42257 42375 1
47291 42261 42376 1
47292 42262 42377 1
47293 42264 42378 1
47294 42265 42379 1
47295 42265 42380 1
47296 42266 42381 1
47297 42266 42382 1
47298 42267 42383 1
47299 42267 42384 1
47300 42273 42385 1
47301 42274 42386 1
47302 42274 42387 1
47303 42274 42388 1
47304 42275 42389 1
47305 42275 42390 1
47306 42275 42391 1
47307 42276 42392 1
47308 42277 42393 1
47309 42278 42394 1
47310 42284 42395 1
47311 42285 42396 1
47312 42286 42397 1
47313 42293 42398 1
47314 42294 42399 1
47315 42295 42400 1
47316 42299 42401 1
47317 42299 42402 1
47318 42300 42403 1
47319 42300 42404 1
47320 42301 42405 1
47321 42301 42406 1
47322 42187 42328 1
47323 42409 42408 1
47324 42410 42409 1
47325 42411 42410 1
47326 42412 42411 1
47327 42407 42408 1
47328 42407 42412 1
47329 42414 42413 1
47330 42415 42414 1
47331 42416 42415 1
47332 42410 42413 1
47333 42409 42416 1
47334 42418 42417 1
47335 42419 42418 1
47336 42420 42419 1
47337 42414 42417 1
47338 42413 42420 1
47339 42422 42421 1
47340 42423 42422 1
47341 42424 42423 1
47342 42419 42421 1
47343 42418 42424 1
47344 42426 42425 1
47345 42427 42426 1
47346 42428 42427 1
47347 42423 42425 1
47348 42422 42428 1
47349 42430 42429 1
47350 42431 42430 1
47351 42421 42431 2
47352 42428 42429 1
47353 42433 42432 1
47354 42434 42433 1
47355 42435 42434 1
47356 42427 42432 1
47357 42426 42435 1
47358 42437 42436 1
47359 42438 42437 1
47360 42424 42436 1
47361 42425 42438 1
47362 42440 42439 2
47363 42441 42440 1
47364 42442 42441 1
47365 42437 42439 1
47366 42436 42442 2
47367 42444 42443 1
47368 42445 42444 1
47369 42446 42445 2
47370 42440 42443 1
47371 42439 42446 1
47372 42448 42447 1
47373 42449 42448 1
47374 42450 42449 1
47375 42446 42447 1
47376 42445 42450 1
47377 42452 42451 1
47378 42438 42452 1
47379 42435 42451 1
47380 42454 42453 1
47381 42455 42454 1
47382 42451 42455 1
47383 42434 42453 1
47384 42457 42456 1
47385 42458 42457 1
47386 42459 42458 1
47387 42454 42456 1
47388 42453 42459 1
47389 42461 42460 1
47390 42462 42461 1
47391 42463 42462 1
47392 42458 42460 1
47393 42457 42463 1
47394 42465 42464 1
47395 42466 42465 1
47396 42467 42466 1
47397 42462 42464 1
47398 42461 42467 1
47399 42469 42468 1
47400 42433 42469 1
47401 42459 42468 1
47402 42471 42470 1
47403 42468 42471 1
47404 42460 42470 1
47405 42473 42472 1
47406 42470 42473 1
47407 42467 42472 1
47408 42475 42474 1
47409 42476 42475 1
47410 42472 42476 1
47411 42466 42474 1
47412 42478 42477 1
47413 42479 42478 1
47414 42480 42479 1
47415 42465 42477 1
47416 42464 42480 1
47417 42482 42481 1
47418 42483 42482 1
47419 42484 42483 1
47420 42479 42481 1
47421 42478 42484 1
47422 42486 42485 1
47423 42487 42486 1
47424 42488 42487 1
47425 42484 42485 1
47426 42483 42488 1
47427 42490 42489 1
47428 42491 42490 1
47429 42473 42491 1
47430 42471 42489 1
47431 42493 42492 1
47432 42494 42493 1
47433 42495 42494 1
47434 42490 42492 1
47435 42489 42495 1
47436 42497 42496 1
47437 42498 42497 1
47438 42499 42498 1
47439 42494 42496 1
47440 42493 42499 1
47441 42501 42500 1
47442 42491 42501 1
47443 42476 42500 1
47444 42503 42502 1
47445 42504 42503 1
47446 42500 42504 1
47447 42475 42502 1
47448 42506 42505 1
47449 42507 42506 1
47450 42474 42507 1
47451 42502 42505 1
47452 42509 42508 1
47453 42510 42509 1
47454 42503 42508 1
47455 42505 42510 1
47456 42512 42511 1
47457 42513 42512 1
47458 42506 42511 1
47459 42510 42513 1
47460 42515 42514 1
47461 42516 42515 1
47462 42517 42516 1
47463 42512 42514 1
47464 42511 42517 1
47465 42519 42518 1
47466 42520 42519 1
47467 42509 42520 1
47468 42513 42518 1
47469 42514 42521 1
47470 42518 42522 1
47471 42521 42522 1
47472 42448 42523 1
47473 42523 42524 1
47474 42523 42525 1
47475 42480 42526 1
47476 42528 42527 1
47477 42529 42528 1
47478 42530 42529 1
47479 42520 42527 1
47480 42519 42530 1
47481 42532 42531 1
47482 42533 42532 1
47483 42534 42533 1
47484 42530 42531 1
47485 42529 42534 1
47486 42536 42535 1
47487 42537 42536 1
47488 42538 42537 1
47489 42533 42535 1
47490 42532 42538 1
47491 42540 42539 1
47492 42541 42540 1
47493 42531 42541 1
47494 42538 42539 1
47495 42543 42542 1
47496 42544 42543 1
47497 42537 42544 1
47498 42539 42542 1
47499 42546 42545 1
47500 42540 42546 1
47501 42522 42541 1
47502 42521 42545 1
47503 42548 42547 1
47504 42546 42548 1
47505 42542 42547 1
47506 42550 42549 1
47507 42551 42550 1
47508 42552 42551 1
47509 42548 42549 1
47510 42547 42552 1
47511 42552 42553 2
47512 42407 42554 1
47513 42407 42555 1
47514 42408 42556 1
47515 42408 42557 1
47516 42409 42558 1
47517 42410 42559 1
47518 42411 42560 1
47519 42411 42561 1
47520 42413 42562 1
47521 42414 42563 1
47522 42415 42564 1
47523 42415 42565 1
47524 42416 42566 1
47525 42416 42567 1
47526 42418 42568 1
47527 42419 42569 1
47528 42420 42570 1
47529 42420 42571 1
47530 42424 42572 1
47531 42429 42573 1
47532 42429 42574 1
47533 42430 42575 1
47534 42430 42576 1
47535 42431 42577 1
47536 42441 42579 1
47537 42441 42580 1
47538 42442 42581 1
47539 42443 42582 1
47540 42443 42583 1
47541 42444 42584 1
47542 42444 42585 1
47543 42447 42586 1
47544 42447 42587 1
47545 42448 42588 1
47546 42449 42589 1
47547 42449 42590 1
47548 42450 42591 1
47549 42450 42592 1
47550 42452 42593 1
47551 42456 42594 1
47552 42463 42595 1
47553 42469 42596 1
47554 42478 42597 1
47555 42479 42598 1
47556 42480 42599 1
47557 42481 42600 1
47558 42481 42601 1
47559 42482 42602 1
47560 42482 42603 1
47561 42483 42604 1
47562 42484 42605 1
47563 42485 42606 1
47564 42485 42607 1
47565 42486 42608 1
47566 42486 42609 1
47567 42487 42610 1
47568 42487 42611 1
47569 42488 42612 1
47570 42493 42613 1
47571 42494 42614 1
47572 42496 42615 1
47573 42496 42616 1
47574 42497 42617 1
47575 42497 42618 1
47576 42498 42619 1
47577 42498 42620 1
47578 42499 42621 1
47579 42499 42622 1
47580 42501 42623 1
47581 42504 42624 1
47582 42507 42625 1
47583 42511 42626 1
47584 42512 42627 1
47585 42514 42628 1
47586 42515 42629 1
47587 42515 42630 1
47588 42516 42631 1
47589 42516 42632 1
47590 42517 42633 1
47591 42517 42634 1
47592 42523 42635 1
47593 42524 42636 1
47594 42524 42637 1
47595 42524 42638 1
47596 42525 42639 1
47597 42525 42640 1
47598 42525 42641 1
47599 42526 42642 1
47600 42527 42643 1
47601 42528 42644 1
47602 42534 42645 1
47603 42535 42646 1
47604 42536 42647 1
47605 42543 42648 1
47606 42544 42649 1
47607 42545 42650 1
47608 42549 42651 1
47609 42549 42652 1
47610 42550 42653 1
47611 42550 42654 1
47612 42551 42655 1
47613 42551 42656 1
47614 42437 42578 1
47615 42659 42658 1
47616 42660 42659 1
47617 42661 42660 1
47618 42662 42661 1
47619 42657 42658 1
47620 42657 42662 1
47621 42664 42663 1
47622 42665 42664 1
47623 42666 42665 1
47624 42660 42663 1
47625 42659 42666 1
47626 42668 42667 1
47627 42669 42668 1
47628 42670 42669 1
47629 42664 42667 1
47630 42663 42670 1
47631 42672 42671 1
47632 42673 42672 1
47633 42674 42673 1
47634 42669 42671 1
47635 42668 42674 1
47636 42676 42675 1
47637 42677 42676 1
47638 42678 42677 1
47639 42673 42675 1
47640 42672 42678 1
47641 42680 42679 1
47642 42681 42680 1
47643 42671 42681 2
47644 42678 42679 1
47645 42683 42682 1
47646 42684 42683 1
47647 42685 42684 1
47648 42677 42682 1
47649 42676 42685 1
47650 42687 42686 1
47651 42688 42687 1
47652 42674 42686 1
47653 42675 42688 1
47654 42690 42689 2
47655 42691 42690 1
47656 42692 42691 1
47657 42687 42689 1
47658 42686 42692 2
47659 42694 42693 1
47660 42695 42694 1
47661 42696 42695 2
47662 42690 42693 1
47663 42689 42696 1
47664 42698 42697 1
47665 42699 42698 1
47666 42700 42699 1
47667 42696 42697 1
47668 42695 42700 1
47669 42702 42701 1
47670 42688 42702 1
47671 42685 42701 1
47672 42704 42703 1
47673 42705 42704 1
47674 42701 42705 1
47675 42684 42703 1
47676 42707 42706 1
47677 42708 42707 1
47678 42709 42708 1
47679 42704 42706 1
47680 42703 42709 1
47681 42711 42710 1
47682 42712 42711 1
47683 42713 42712 1
47684 42708 42710 1
47685 42707 42713 1
47686 42715 42714 1
47687 42716 42715 1
47688 42717 42716 1
47689 42712 42714 1
47690 42711 42717 1
47691 42719 42718 1
47692 42683 42719 1
47693 42709 42718 1
47694 42721 42720 1
47695 42718 42721 1
47696 42710 42720 1
47697 42723 42722 1
47698 42720 42723 1
47699 42717 42722 1
47700 42725 42724 1
47701 42726 42725 1
47702 42722 42726 1
47703 42716 42724 1
47704 42728 42727 1
47705 42729 42728 1
47706 42730 42729 1
47707 42715 42727 1
47708 42714 42730 1
47709 42732 42731 1
47710 42733 42732 1
47711 42734 42733 1
47712 42729 42731 1
47713 42728 42734 1
47714 42736 42735 1
47715 42737 42736 1
47716 42738 42737 1
47717 42734 42735 1
47718 42733 42738 1
47719 42740 42739 1
47720 42741 42740 1
47721 42723 42741 1
47722 42721 42739 1
47723 42743 42742 1
47724 42744 42743 1
47725 42745 42744 1
47726 42740 42742 1
47727 42739 42745 1
47728 42747 42746 1
47729 42748 42747 1
47730 42749 42748 1
47731 42744 42746 1
47732 42743 42749 1
47733 42751 42750 1
47734 42741 42751 1
47735 42726 42750 1
47736 42753 42752 1
47737 42754 42753 1
47738 42750 42754 1
47739 42725 42752 1
47740 42756 42755 1
47741 42757 42756 1
47742 42724 42757 1
47743 42752 42755 1
47744 42759 42758 1
47745 42760 42759 1
47746 42753 42758 1
47747 42755 42760 1
47748 42762 42761 1
47749 42763 42762 1
47750 42756 42761 1
47751 42760 42763 1
47752 42765 42764 1
47753 42766 42765 1
47754 42767 42766 1
47755 42762 42764 1
47756 42761 42767 1
47757 42769 42768 1
47758 42770 42769 1
47759 42759 42770 1
47760 42763 42768 1
47761 42764 42771 1
47762 42768 42772 1
47763 42771 42772 1
47764 42698 42773 1
47765 42773 42774 1
47766 42773 42775 1
47767 42730 42776 1
47768 42778 42777 1
47769 42779 42778 1
47770 42780 42779 1
47771 42770 42777 1
47772 42769 42780 1
47773 42782 42781 1
47774 42783 42782 1
47775 42784 42783 1
47776 42780 42781 1
47777 42779 42784 1
47778 42786 42785 1
47779 42787 42786 1
47780 42788 42787 1
47781 42783 42785 1
47782 42782 42788 1
47783 42790 42789 1
47784 42791 42790 1
47785 42781 42791 1
47786 42788 42789 1
47787 42793 42792 1
47788 42794 42793 1
47789 42787 42794 1
47790 42789 42792 1
47791 42796 42795 1
47792 42790 42796 1
47793 42772 42791 1
47794 42771 42795 1
47795 42798 42797 1
47796 42796 42798 1
47797 42792 42797 1
47798 42800 42799 1
47799 42801 42800 1
47800 42802 42801 1
47801 42798 42799 1
47802 42797 42802 1
47803 42802 42803 2
47804 42657 42804 1
47805 42657 42805 1
47806 42658 42806 1
47807 42658 42807 1
47808 42659 42808 1
47809 42660 42809 1
47810 42661 42810 1
47811 42661 42811 1
47812 42663 42812 1
47813 42664 42813 1
47814 42665 42814 1
47815 42665 42815 1
47816 42666 42816 1
47817 42666 42817 1
47818 42668 42818 1
47819 42669 42819 1
47820 42670 42820 1
47821 42670 42821 1
47822 42674 42822 1
47823 42679 42823 1
47824 42679 42824 1
47825 42680 42825 1
47826 42680 42826 1
47827 42681 42827 1
47828 42691 42829 1
47829 42691 42830 1
47830 42692 42831 1
47831 42693 42832 1
47832 42693 42833 1
47833 42694 42834 1
47834 42694 42835 1
47835 42697 42836 1
47836 42697 42837 1
47837 42698 42838 1
47838 42699 42839 1
47839 42699 42840 1
47840 42700 42841 1
47841 42700 42842 1
47842 42702 42843 1
47843 42706 42844 1
47844 42713 42845 1
47845 42719 42846 1
47846 42728 42847 1
47847 42729 42848 1
47848 42730 42849 1
47849 42731 42850 1
47850 42731 42851 1
47851 42732 42852 1
47852 42732 42853 1
47853 42733 42854 1
47854 42734 42855 1
47855 42735 42856 1
47856 42735 42857 1
47857 42736 42858 1
47858 42736 42859 1
47859 42737 42860 1
47860 42737 42861 1
47861 42738 42862 1
47862 42743 42863 1
47863 42744 42864 1
47864 42746 42865 1
47865 42746 42866 1
47866 42747 42867 1
47867 42747 42868 1
47868 42748 42869 1
47869 42748 42870 1
47870 42749 42871 1
47871 42749 42872 1
47872 42751 42873 1
47873 42754 42874 1
47874 42757 42875 1
47875 42761 42876 1
47876 42762 42877 1
47877 42764 42878 1
47878 42765 42879 1
47879 42765 42880 1
47880 42766 42881 1
47881 42766 42882 1
47882 42767 42883 1
47883 42767 42884 1
47884 42773 42885 1
47885 42774 42886 1
47886 42774 42887 1
47887 42774 42888 1
47888 42775 42889 1
47889 42775 42890 1
47890 42775 42891 1
47891 42776 42892 1
47892 42777 42893 1
47893 42778 42894 1
47894 42784 42895 1
47895 42785 42896 1
47896 42786 42897 1
47897 42793 42898 1
47898 42794 42899 1
47899 42795 42900 1
47900 42799 42901 1
47901 42799 42902 1
47902 42800 42903 1
47903 42800 42904 1
47904 42801 42905 1
47905 42801 42906 1
47906 42687 42828 1
47907 42909 42908 1
47908 42910 42909 1
47909 42911 42910 1
47910 42912 42911 1
47911 42907 42908 1
47912 42907 42912 1
47913 42914 42913 1
47914 42915 42914 1
47915 42916 42915 1
47916 42910 42913 1
47917 42909 42916 1
47918 42918 42917 1
47919 42919 42918 1
47920 42920 42919 1
47921 42914 42917 1
47922 42913 42920 1
47923 42922 42921 1
47924 42923 42922 1
47925 42924 42923 1
47926 42919 42921 1
47927 42918 42924 1
47928 42926 42925 1
47929 42927 42926 1
47930 42928 42927 1
47931 42923 42925 1
47932 42922 42928 1
47933 42930 42929 1
47934 42931 42930 1
47935 42921 42931 2
47936 42928 42929 1
47937 42933 42932 1
47938 42934 42933 1
47939 42935 42934 1
47940 42927 42932 1
47941 42926 42935 1
47942 42937 42936 1
47943 42938 42937 1
47944 42924 42936 1
47945 42925 42938 1
47946 42940 42939 2
47947 42941 42940 1
47948 42942 42941 1
47949 42937 42939 1
47950 42936 42942 2
47951 42944 42943 1
47952 42945 42944 1
47953 42946 42945 2
47954 42940 42943 1
47955 42939 42946 1
47956 42948 42947 1
47957 42949 42948 1
47958 42950 42949 1
47959 42946 42947 1
47960 42945 42950 1
47961 42952 42951 1
47962 42938 42952 1
47963 42935 42951 1
47964 42954 42953 1
47965 42955 42954 1
47966 42951 42955 1
47967 42934 42953 1
47968 42957 42956 1
47969 42958 42957 1
47970 42959 42958 1
47971 42954 42956 1
47972 42953 42959 1
47973 42961 42960 1
47974 42962 42961 1
47975 42963 42962 1
47976 42958 42960 1
47977 42957 42963 1
47978 42965 42964 1
47979 42966 42965 1
47980 42967 42966 1
47981 42962 42964 1
47982 42961 42967 1
47983 42969 42968 1
47984 42933 42969 1
47985 42959 42968 1
47986 42971 42970 1
47987 42968 42971 1
47988 42960 42970 1
47989 42973 42972 1
47990 42970 42973 1
47991 42967 42972 1
47992 42975 42974 1
47993 42976 42975 1
47994 42972 42976 1
47995 42966 42974 1
47996 42978 42977 1
47997 42979 42978 1
47998 42980 42979 1
47999 42965 42977 1
48000 42964 42980 1
48001 42982 42981 1
48002 42983 42982 1
48003 42984 42983 1
48004 42979 42981 1
48005 42978 42984 1
48006 42986 42985 1
48007 42987 42986 1
48008 42988 42987 1
48009 42984 42985 1
48010 42983 42988 1
48011 42990 42989 1
48012 42991 42990 1
48013 42973 42991 1
48014 42971 42989 1
48015 42993 42992 1
48016 42994 42993 1
48017 42995 42994 1
48018 42990 42992 1
48019 42989 42995 1
48020 42997 42996 1
48021 42998 42997 1
48022 42999 42998 1
48023 42994 42996 1
48024 42993 42999 1
48025 43001 43000 1
48026 42991 43001 1
48027 42976 43000 1
48028 43003 43002 1
48029 43004 43003 1
48030 43000 43004 1
48031 42975 43002 1
48032 43006 43005 1
48033 43007 43006 1
48034 42974 43007 1
48035 43002 43005 1
48036 43009 43008 1
48037 43010 43009 1
48038 43003 43008 1
48039 43005 43010 1
48040 43012 43011 1
48041 43013 43012 1
48042 43006 43011 1
48043 43010 43013 1
48044 43015 43014 1
48045 43016 43015 1
48046 43017 43016 1
48047 43012 43014 1
48048 43011 43017 1
48049 43019 43018 1
48050 43020 43019 1
48051 43009 43020 1
48052 43013 43018 1
48053 43014 43021 1
48054 43018 43022 1
48055 43021 43022 1
48056 42948 43023 1
48057 43023 43024 1
48058 43023 43025 1
48059 42980 43026 1
48060 43028 43027 1
48061 43029 43028 1
48062 43030 43029 1
48063 43020 43027 1
48064 43019 43030 1
48065 43032 43031 1
48066 43033 43032 1
48067 43034 43033 1
48068 43030 43031 1
48069 43029 43034 1
48070 43036 43035 1
48071 43037 43036 1
48072 43038 43037 1
48073 43033 43035 1
48074 43032 43038 1
48075 43040 43039 1
48076 43041 43040 1
48077 43031 43041 1
48078 43038 43039 1
48079 43043 43042 1
48080 43044 43043 1
48081 43037 43044 1
48082 43039 43042 1
48083 43046 43045 1
48084 43040 43046 1
48085 43022 43041 1
48086 43021 43045 1
48087 43048 43047 1
48088 43046 43048 1
48089 43042 43047 1
48090 43050 43049 1
48091 43051 43050 1
48092 43052 43051 1
48093 43048 43049 1
48094 43047 43052 1
48095 43052 43053 2
48096 42907 43054 1
48097 42907 43055 1
48098 42908 43056 1
48099 42908 43057 1
48100 42909 43058 1
48101 42910 43059 1
48102 42911 43060 1
48103 42911 43061 1
48104 42913 43062 1
48105 42914 43063 1
48106 42915 43064 1
48107 42915 43065 1
48108 42916 43066 1
48109 42916 43067 1
48110 42918 43068 1
48111 42919 43069 1
48112 42920 43070 1
48113 42920 43071 1
48114 42924 43072 1
48115 42929 43073 1
48116 42929 43074 1
48117 42930 43075 1
48118 42930 43076 1
48119 42931 43077 1
48120 42941 43079 1
48121 42941 43080 1
48122 42942 43081 1
48123 42943 43082 1
48124 42943 43083 1
48125 42944 43084 1
48126 42944 43085 1
48127 42947 43086 1
48128 42947 43087 1
48129 42948 43088 1
48130 42949 43089 1
48131 42949 43090 1
48132 42950 43091 1
48133 42950 43092 1
48134 42952 43093 1
48135 42956 43094 1
48136 42963 43095 1
48137 42969 43096 1
48138 42978 43097 1
48139 42979 43098 1
48140 42980 43099 1
48141 42981 43100 1
48142 42981 43101 1
48143 42982 43102 1
48144 42982 43103 1
48145 42983 43104 1
48146 42984 43105 1
48147 42985 43106 1
48148 42985 43107 1
48149 42986 43108 1
48150 42986 43109 1
48151 42987 43110 1
48152 42987 43111 1
48153 42988 43112 1
48154 42993 43113 1
48155 42994 43114 1
48156 42996 43115 1
48157 42996 43116 1
48158 42997 43117 1
48159 42997 43118 1
48160 42998 43119 1
48161 42998 43120 1
48162 42999 43121 1
48163 42999 43122 1
48164 43001 43123 1
48165 43004 43124 1
48166 43007 43125 1
48167 43011 43126 1
48168 43012 43127 1
48169 43014 43128 1
48170 43015 43129 1
48171 43015 43130 1
48172 43016 43131 1
48173 43016 43132 1
48174 43017 43133 1
48175 43017 43134 1
48176 43023 43135 1
48177 43024 43136 1
48178 43024 43137 1
48179 43024 43138 1
48180 43025 43139 1
48181 43025 43140 1
48182 43025 43141 1
48183 43026 43142 1
48184 43027 43143 1
48185 43028 43144 1
48186 43034 43145 1
48187 43035 43146 1
48188 43036 43147 1
48189 43043 43148 1
48190 43044 43149 1
48191 43045 43150 1
48192 43049 43151 1
48193 43049 43152 1
48194 43050 43153 1
48195 43050 43154 1
48196 43051 43155 1
48197 43051 43156 1
48198 42937 43078 1
48199 43159 43158 1
48200 43160 43159 1
48201 43161 43160 1
48202 43162 43161 1
48203 43157 43158 1
48204 43157 43162 1
48205 43164 43163 1
48206 43165 43164 1
48207 43166 43165 1
48208 43160 43163 1
48209 43159 43166 1
48210 43168 43167 1
48211 43169 43168 1
48212 43170 43169 1
48213 43164 43167 1
48214 43163 43170 1
48215 43172 43171 1
48216 43173 43172 1
48217 43174 43173 1
48218 43169 43171 1
48219 43168 43174 1
48220 43176 43175 1
48221 43177 43176 1
48222 43178 43177 1
48223 43173 43175 1
48224 43172 43178 1
48225 43180 43179 1
48226 43181 43180 1
48227 43171 43181 2
48228 43178 43179 1
48229 43183 43182 1
48230 43184 43183 1
48231 43185 43184 1
48232 43177 43182 1
48233 43176 43185 1
48234 43187 43186 1
48235 43188 43187 1
48236 43174 43186 1
48237 43175 43188 1
48238 43190 43189 2
48239 43191 43190 1
48240 43192 43191 1
48241 43187 43189 1
48242 43186 43192 2
48243 43194 43193 1
48244 43195 43194 1
48245 43196 43195 2
48246 43190 43193 1
48247 43189 43196 1
48248 43198 43197 1
48249 43199 43198 1
48250 43200 43199 1
48251 43196 43197 1
48252 43195 43200 1
48253 43202 43201 1
48254 43188 43202 1
48255 43185 43201 1
48256 43204 43203 1
48257 43205 43204 1
48258 43201 43205 1
48259 43184 43203 1
48260 43207 43206 1
48261 43208 43207 1
48262 43209 43208 1
48263 43204 43206 1
48264 43203 43209 1
48265 43211 43210 1
48266 43212 43211 1
48267 43213 43212 1
48268 43208 43210 1
48269 43207 43213 1
48270 43215 43214 1
48271 43216 43215 1
48272 43217 43216 1
48273 43212 43214 1
48274 43211 43217 1
48275 43219 43218 1
48276 43183 43219 1
48277 43209 43218 1
48278 43221 43220 1
48279 43218 43221 1
48280 43210 43220 1
48281 43223 43222 1
48282 43220 43223 1
48283 43217 43222 1
48284 43225 43224 1
48285 43226 43225 1
48286 43222 43226 1
48287 43216 43224 1
48288 43228 43227 1
48289 43229 43228 1
48290 43230 43229 1
48291 43215 43227 1
48292 43214 43230 1
48293 43232 43231 1
48294 43233 43232 1
48295 43234 43233 1
48296 43229 43231 1
48297 43228 43234 1
48298 43236 43235 1
48299 43237 43236 1
48300 43238 43237 1
48301 43234 43235 1
48302 43233 43238 1
48303 43240 43239 1
48304 43241 43240 1
48305 43223 43241 1
48306 43221 43239 1
48307 43243 43242 1
48308 43244 43243 1
48309 43245 43244 1
48310 43240 43242 1
48311 43239 43245 1
48312 43247 43246 1
48313 43248 43247 1
48314 43249 43248 1
48315 43244 43246 1
48316 43243 43249 1
48317 43251 43250 1
48318 43241 43251 1
48319 43226 43250 1
48320 43253 43252 1
48321 43254 43253 1
48322 43250 43254 1
48323 43225 43252 1
48324 43256 43255 1
48325 43257 43256 1
48326 43224 43257 1
48327 43252 43255 1
48328 43259 43258 1
48329 43260 43259 1
48330 43253 43258 1
48331 43255 43260 1
48332 43262 43261 1
48333 43263 43262 1
48334 43256 43261 1
48335 43260 43263 1
48336 43265 43264 1
48337 43266 43265 1
48338 43267 43266 1
48339 43262 43264 1
48340 43261 43267 1
48341 43269 43268 1
48342 43270 43269 1
48343 43259 43270 1
48344 43263 43268 1
48345 43264 43271 1
48346 43268 43272 1
48347 43271 43272 1
48348 43198 43273 1
48349 43273 43274 1
48350 43273 43275 1
48351 43230 43276 1
48352 43278 43277 1
48353 43279 43278 1
48354 43280 43279 1
48355 43270 43277 1
48356 43269 43280 1
48357 43282 43281 1
48358 43283 43282 1
48359 43284 43283 1
48360 43280 43281 1
48361 43279 43284 1
48362 43286 43285 1
48363 43287 43286 1
48364 43288 43287 1
48365 43283 43285 1
48366 43282 43288 1
48367 43290 43289 1
48368 43291 43290 1
48369 43281 43291 1
48370 43288 43289 1
48371 43293 43292 1
48372 43294 43293 1
48373 43287 43294 1
48374 43289 43292 1
48375 43296 43295 1
48376 43290 43296 1
48377 43272 43291 1
48378 43271 43295 1
48379 43298 43297 1
48380 43296 43298 1
48381 43292 43297 1
48382 43300 43299 1
48383 43301 43300 1
48384 43302 43301 1
48385 43298 43299 1
48386 43297 43302 1
48387 43302 43303 2
48388 43157 43304 1
48389 43157 43305 1
48390 43158 43306 1
48391 43158 43307 1
48392 43159 43308 1
48393 43160 43309 1
48394 43161 43310 1
48395 43161 43311 1
48396 43163 43312 1
48397 43164 43313 1
48398 43165 43314 1
48399 43165 43315 1
48400 43166 43316 1
48401 43166 43317 1
48402 43168 43318 1
48403 43169 43319 1
48404 43170 43320 1
48405 43170 43321 1
48406 43174 43322 1
48407 43179 43323 1
48408 43179 43324 1
48409 43180 43325 1
48410 43180 43326 1
48411 43181 43327 1
48412 43191 43329 1
48413 43191 43330 1
48414 43192 43331 1
48415 43193 43332 1
48416 43193 43333 1
48417 43194 43334 1
48418 43194 43335 1
48419 43197 43336 1
48420 43197 43337 1
48421 43198 43338 1
48422 43199 43339 1
48423 43199 43340 1
48424 43200 43341 1
48425 43200 43342 1
48426 43202 43343 1
48427 43206 43344 1
48428 43213 43345 1
48429 43219 43346 1
48430 43228 43347 1
48431 43229 43348 1
48432 43230 43349 1
48433 43231 43350 1
48434 43231 43351 1
48435 43232 43352 1
48436 43232 43353 1
48437 43233 43354 1
48438 43234 43355 1
48439 43235 43356 1
48440 43235 43357 1
48441 43236 43358 1
48442 43236 43359 1
48443 43237 43360 1
48444 43237 43361 1
48445 43238 43362 1
48446 43243 43363 1
48447 43244 43364 1
48448 43246 43365 1
48449 43246 43366 1
48450 43247 43367 1
48451 43247 43368 1
48452 43248 43369 1
48453 43248 43370 1
48454 43249 43371 1
48455 43249 43372 1
48456 43251 43373 1
48457 43254 43374 1
48458 43257 43375 1
48459 43261 43376 1
48460 43262 43377 1
48461 43264 43378 1
48462 43265 43379 1
48463 43265 43380 1
48464 43266 43381 1
48465 43266 43382 1
48466 43267 43383 1
48467 43267 43384 1
48468 43273 43385 1
48469 43274 43386 1
48470 43274 43387 1
48471 43274 43388 1
48472 43275 43389 1
48473 43275 43390 1
48474 43275 43391 1
48475 43276 43392 1
48476 43277 43393 1
48477 43278 43394 1
48478 43284 43395 1
48479 43285 43396 1
48480 43286 43397 1
48481 43293 43398 1
48482 43294 43399 1
48483 43295 43400 1
48484 43299 43401 1
48485 43299 43402 1
48486 43300 43403 1
48487 43300 43404 1
48488 43301 43405 1
48489 43301 43406 1
48490 43187 43328 1
48491 43409 43408 1
48492 43410 43409 1
48493 43411 43410 1
48494 43412 43411 1
48495 43407 43408 1
48496 43407 43412 1
48497 43414 43413 1
48498 43415 43414 1
48499 43416 43415 1
48500 43410 43413 1
48501 43409 43416 1
48502 43418 43417 1
48503 43419 43418 1
48504 43420 43419 1
48505 43414 43417 1
48506 43413 43420 1
48507 43422 43421 1
48508 43423 43422 1
48509 43424 43423 1
48510 43419 43421 1
48511 43418 43424 1
48512 43426 43425 1
48513 43427 43426 1
48514 43428 43427 1
48515 43423 43425 1
48516 43422 43428 1
48517 43430 43429 1
48518 43431 43430 1
48519 43421 43431 2
48520 43428 43429 1
48521 43433 43432 1
48522 43434 43433 1
48523 43435 43434 1
48524 43427 43432 1
48525 43426 43435 1
48526 43437 43436 1
48527 43438 43437 1
48528 43424 43436 1
48529 43425 43438 1
48530 43440 43439 2
48531 43441 43440 1
48532 43442 43441 1
48533 43437 43439 1
48534 43436 43442 2
48535 43444 43443 1
48536 43445 43444 1
48537 43446 43445 2
48538 43440 43443 1
48539 43439 43446 1
48540 43448 43447 1
48541 43449 43448 1
48542 43450 43449 1
48543 43446 43447 1
48544 43445 43450 1
48545 43452 43451 1
48546 43438 43452 1
48547 43435 43451 1
48548 43454 43453 1
48549 43455 43454 1
48550 43451 43455 1
48551 43434 43453 1
48552 43457 43456 1
48553 43458 43457 1
48554 43459 43458 1
48555 43454 43456 1
48556 43453 43459 1
48557 43461 43460 1
48558 43462 43461 1
48559 43463 43462 1
48560 43458 43460 1
48561 43457 43463 1
48562 43465 43464 1
48563 43466 43465 1
48564 43467 43466 1
48565 43462 43464 1
48566 43461 43467 1
48567 43469 43468 1
48568 43433 43469 1
48569 43459 43468 1
48570 43471 43470 1
48571 43468 43471 1
48572 43460 43470 1
48573 43473 43472 1
48574 43470 43473 1
48575 43467 43472 1
48576 43475 43474 1
48577 43476 43475 1
48578 43472 43476 1
48579 43466 43474 1
48580 43478 43477 1
48581 43479 43478 1
48582 43480 43479 1
48583 43465 43477 1
48584 43464 43480 1
48585 43482 43481 1
48586 43483 43482 1
48587 43484 43483 1
48588 43479 43481 1
48589 43478 43484 1
48590 43486 43485 1
48591 43487 43486 1
48592 43488 43487 1
48593 43484 43485 1
48594 43483 43488 1
48595 43490 43489 1
48596 43491 43490 1
48597 43473 43491 1
48598 43471 43489 1
48599 43493 43492 1
48600 43494 43493 1
48601 43495 43494 1
48602 43490 43492 1
48603 43489 43495 1
48604 43497 43496 1
48605 43498 43497 1
48606 43499 43498 1
48607 43494 43496 1
48608 43493 43499 1
48609 43501 43500 1
48610 43491 43501 1
48611 43476 43500 1
48612 43503 43502 1
48613 43504 43503 1
48614 43500 43504 1
48615 43475 43502 1
48616 43506 43505 1
48617 43507 43506 1
48618 43474 43507 1
48619 43502 43505 1
48620 43509 43508 1
48621 43510 43509 1
48622 43503 43508 1
48623 43505 43510 1
48624 43512 43511 1
48625 43513 43512 1
48626 43506 43511 1
48627 43510 43513 1
48628 43515 43514 1
48629 43516 43515 1
48630 43517 43516 1
48631 43512 43514 1
48632 43511 43517 1
48633 43519 43518 1
48634 43520 43519 1
48635 43509 43520 1
48636 43513 43518 1
48637 43514 43521 1
48638 43518 43522 1
48639 43521 43522 1
48640 43448 43523 1
48641 43523 43524 1
48642 43523 43525 1
48643 43480 43526 1
48644 43528 43527 1
48645 43529 43528 1
48646 43530 43529 1
48647 43520 43527 1
48648 43519 43530 1
48649 43532 43531 1
48650 43533 43532 1
48651 43534 43533 1
48652 43530 43531 1
48653 43529 43534 1
48654 43536 43535 1
48655 43537 43536 1
48656 43538 43537 1
48657 43533 43535 1
48658 43532 43538 1
48659 43540 43539 1
48660 43541 43540 1
48661 43531 43541 1
48662 43538 43539 1
48663 43543 43542 1
48664 43544 43543 1
48665 43537 43544 1
48666 43539 43542 1
48667 43546 43545 1
48668 43540 43546 1
48669 43522 43541 1
48670 43521 43545 1
48671 43548 43547 1
48672 43546 43548 1
48673 43542 43547 1
48674 43550 43549 1
48675 43551 43550 1
48676 43552 43551 1
48677 43548 43549 1
48678 43547 43552 1
48679 43552 43553 2
48680 43407 43554 1
48681 43407 43555 1
48682 43408 43556 1
48683 43408 43557 1
48684 43409 43558 1
48685 43410 43559 1
48686 43411 43560 1
48687 43411 43561 1
48688 43413 43562 1
48689 43414 43563 1
48690 43415 43564 1
48691 43415 43565 1
48692 43416 43566 1
48693 43416 43567 1
48694 43418 43568 1
48695 43419 43569 1
48696 43420 43570 1
48697 43420 43571 1
48698 43424 43572 1
48699 43429 43573 1
48700 43429 43574 1
48701 43430 43575 1
48702 43430 43576 1
48703 43431 43577 1
48704 43441 43579 1
48705 43441 43580 1
48706 43442 43581 1
48707 43443 43582 1
48708 43443 43583 1
48709 43444 43584 1
48710 43444 43585 1
48711 43447 43586 1
48712 43447 43587 1
48713 43448 43588 1
48714 43449 43589 1
48715 43449 43590 1
48716 43450 43591 1
48717 43450 43592 1
48718 43452 43593 1
48719 43456 43594 1
48720 43463 43595 1
48721 43469 43596 1
48722 43478 43597 1
48723 43479 43598 1
48724 43480 43599 1
48725 43481 43600 1
48726 43481 43601 1
48727 43482 43602 1
48728 43482 43603 1
48729 43483 43604 1
48730 43484 43605 1
48731 43485 43606 1
48732 43485 43607 1
48733 43486 43608 1
48734 43486 43609 1
48735 43487 43610 1
48736 43487 43611 1
48737 43488 43612 1
48738 43493 43613 1
48739 43494 43614 1
48740 43496 43615 1
48741 43496 43616 1
48742 43497 43617 1
48743 43497 43618 1
48744 43498 43619 1
48745 43498 43620 1
48746 43499 43621 1
48747 43499 43622 1
48748 43501 43623 1
48749 43504 43624 1
48750 43507 43625 1
48751 43511 43626 1
48752 43512 43627 1
48753 43514 43628 1
48754 43515 43629 1
48755 43515 43630 1
48756 43516 43631 1
48757 43516 43632 1
48758 43517 43633 1
48759 43517 43634 1
48760 43523 43635 1
48761 43524 43636 1
48762 43524 43637 1
48763 43524 43638 1
48764 43525 43639 1
48765 43525 43640 1
48766 43525 43641 1
48767 43526 43642 1
48768 43527 43643 1
48769 43528 43644 1
48770 43534 43645 1
48771 43535 43646 1
48772 43536 43647 1
48773 43543 43648 1
48774 43544 43649 1
48775 43545 43650 1
48776 43549 43651 1
48777 43549 43652 1
48778 43550 43653 1
48779 43550 43654 1
48780 43551 43655 1
48781 43551 43656 1
48782 43437 43578 1
48783 43659 43658 1
48784 43660 43659 1
48785 43661 43660 1
48786 43662 43661 1
48787 43657 43658 1
48788 43657 43662 1
48789 43664 43663 1
48790 43665 43664 1
48791 43666 43665 1
48792 43660 43663 1
48793 43659 43666 1
48794 43668 43667 1
48795 43669 43668 1
48796 43670 43669 1
48797 43664 43667 1
48798 43663 43670 1
48799 43672 43671 1
48800 43673 43672 1
48801 43674 43673 1
48802 43669 43671 1
48803 43668 43674 1
48804 43676 43675 1
48805 43677 43676 1
48806 43678 43677 1
48807 43673 43675 1
48808 43672 43678 1
48809 43680 43679 1
48810 43681 43680 1
48811 43671 43681 2
48812 43678 43679 1
48813 43683 43682 1
48814 43684 43683 1
48815 43685 43684 1
48816 43677 43682 1
48817 43676 43685 1
48818 43687 43686 1
48819 43688 43687 1
48820 43674 43686 1
48821 43675 43688 1
48822 43690 43689 2
48823 43691 43690 1
48824 43692 43691 1
48825 43687 43689 1
48826 43686 43692 2
48827 43694 43693 1
48828 43695 43694 1
48829 43696 43695 2
48830 43690 43693 1
48831 43689 43696 1
48832 43698 43697 1
48833 43699 43698 1
48834 43700 43699 1
48835 43696 43697 1
48836 43695 43700 1
48837 43702 43701 1
48838 43688 43702 1
48839 43685 43701 1
48840 43704 43703 1
48841 43705 43704 1
48842 43701 43705 1
48843 43684 43703 1
48844 43707 43706 1
48845 43708 43707 1
48846 43709 43708 1
48847 43704 43706 1
48848 43703 43709 1
48849 43711 43710 1
48850 43712 43711 1
48851 43713 43712 1
48852 43708 43710 1
48853 43707 43713 1
48854 43715 43714 1
48855 43716 43715 1
48856 43717 43716 1
48857 43712 43714 1
48858 43711 43717 1
48859 43719 43718 1
48860 43683 43719 1
48861 43709 43718 1
48862 43721 43720 1
48863 43718 43721 1
48864 43710 43720 1
48865 43723 43722 1
48866 43720 43723 1
48867 43717 43722 1
48868 43725 43724 1
48869 43726 43725 1
48870 43722 43726 1
48871 43716 43724 1
48872 43728 43727 1
48873 43729 43728 1
48874 43730 43729 1
48875 43715 43727 1
48876 43714 43730 1
48877 43732 43731 1
48878 43733 43732 1
48879 43734 43733 1
48880 43729 43731 1
48881 43728 43734 1
48882 43736 43735 1
48883 43737 43736 1
48884 43738 43737 1
48885 43734 43735 1
48886 43733 43738 1
48887 43740 43739 1
48888 43741 43740 1
48889 43723 43741 1
48890 43721 43739 1
48891 43743 43742 1
48892 43744 43743 1
48893 43745 43744 1
48894 43740 43742 1
48895 43739 43745 1
48896 43747 43746 1
48897 43748 43747 1
48898 43749 43748 1
48899 43744 43746 1
48900 43743 43749 1
48901 43751 43750 1
48902 43741 43751 1
48903 43726 43750 1
48904 43753 43752 1
48905 43754 43753 1
48906 43750 43754 1
48907 43725 43752 1
48908 43756 43755 1
48909 43757 43756 1
48910 43724 43757 1
48911 43752 43755 1
48912 43759 43758 1
48913 43760 43759 1
48914 43753 43758 1
48915 43755 43760 1
48916 43762 43761 1
48917 43763 43762 1
48918 43756 43761 1
48919 43760 43763 1
48920 43765 43764 1
48921 43766 43765 1
48922 43767 43766 1
48923 43762 43764 1
48924 43761 43767 1
48925 43769 43768 1
48926 43770 43769 1
48927 43759 43770 1
48928 43763 43768 1
48929 43764 43771 1
48930 43768 43772 1
48931 43771 43772 1
48932 43698 43773 1
48933 43773 43774 1
48934 43773 43775 1
48935 43730 43776 1
48936 43778 43777 1
48937 43779 43778 1
48938 43780 43779 1
48939 43770 43777 1
48940 43769 43780 1
48941 43782 43781 1
48942 43783 43782 1
48943 43784 43783 1
48944 43780 43781 1
48945 43779 43784 1
48946 43786 43785 1
48947 43787 43786 1
48948 43788 43787 1
48949 43783 43785 1
48950 43782 43788 1
48951 43790 43789 1
48952 43791 43790 1
48953 43781 43791 1
48954 43788 43789 1
48955 43793 43792 1
48956 43794 43793 1
48957 43787 43794 1
48958 43789 43792 1
48959 43796 43795 1
48960 43790 43796 1
48961 43772 43791 1
48962 43771 43795 1
48963 43798 43797 1
48964 43796 43798 1
48965 43792 43797 1
48966 43800 43799 1
48967 43801 43800 1
48968 43802 43801 1
48969 43798 43799 1
48970 43797 43802 1
48971 43802 43803 2
48972 43657 43804 1
48973 43657 43805 1
48974 43658 43806 1
48975 43658 43807 1
48976 43659 43808 1
48977 43660 43809 1
48978 43661 43810 1
48979 43661 43811 1
48980 43663 43812 1
48981 43664 43813 1
48982 43665 43814 1
48983 43665 43815 1
48984 43666 43816 1
48985 43666 43817 1
48986 43668 43818 1
48987 43669 43819 1
48988 43670 43820 1
48989 43670 43821 1
48990 43674 43822 1
48991 43679 43823 1
48992 43679 43824 1
48993 43680 43825 1
48994 43680 43826 1
48995 43681 43827 1
48996 43691 43829 1
48997 43691 43830 1
48998 43692 43831 1
48999 43693 43832 1
49000 43693 43833 1
49001 43694 43834 1
49002 43694 43835 1
49003 43697 43836 1
49004 43697 43837 1
49005 43698 43838 1
49006 43699 43839 1
49007 43699 43840 1
49008 43700 43841 1
49009 43700 43842 1
49010 43702 43843 1
49011 43706 43844 1
49012 43713 43845 1
49013 43719 43846 1
49014 43728 43847 1
49015 43729 43848 1
49016 43730 43849 1
49017 43731 43850 1
49018 43731 43851 1
49019 43732 43852 1
49020 43732 43853 1
49021 43733 43854 1
49022 43734 43855 1
49023 43735 43856 1
49024 43735 43857 1
49025 43736 43858 1
49026 43736 43859 1
49027 43737 43860 1
49028 43737 43861 1
49029 43738 43862 1
49030 43743 43863 1
49031 43744 43864 1
49032 43746 43865 1
49033 43746 43866 1
49034 43747 43867 1
49035 43747 43868 1
49036 43748 43869 1
49037 43748 43870 1
49038 43749 43871 1
49039 43749 43872 1
49040 43751 43873 1
49041 43754 43874 1
49042 43757 43875 1
49043 43761 43876 1
49044 43762 43877 1
49045 43764 43878 1
49046 43765 43879 1
49047 43765 43880 1
49048 43766 43881 1
49049 43766 43882 1
49050 43767 43883 1
49051 43767 43884 1
49052 43773 43885 1
49053 43774 43886 1
49054 43774 43887 1
49055 43774 43888 1
49056 43775 43889 1
49057 43775 43890 1
49058 43775 43891 1
49059 43776 43892 1
49060 43777 43893 1
49061 43778 43894 1
49062 43784 43895 1
49063 43785 43896 1
49064 43786 43897 1
49065 43793 43898 1
49066 43794 43899 1
49067 43795 43900 1
49068 43799 43901 1
49069 43799 43902 1
49070 43800 43903 1
49071 43800 43904 1
49072 43801 43905 1
49073 43801 43906 1
49074 43687 43828 1
49075 43909 43908 1
49076 43910 43909 1
49077 43911 43910 1
49078 43912 43911 1
49079 43907 43908 1
49080 43907 43912 1
49081 43914 43913 1
49082 43915 43914 1
49083 43916 43915 1
49084 43910 43913 1
49085 43909 43916 1
49086 43918 43917 1
49087 43919 43918 1
49088 43920 43919 1
49089 43914 43917 1
49090 43913 43920 1
49091 43922 43921 1
49092 43923 43922 1
49093 43924 43923 1
49094 43919 43921 1
49095 43918 43924 1
49096 43926 43925 1
49097 43927 43926 1
49098 43928 43927 1
49099 43923 43925 1
49100 43922 43928 1
49101 43930 43929 1
49102 43931 43930 1
49103 43921 43931 2
49104 43928 43929 1
49105 43933 43932 1
49106 43934 43933 1
49107 43935 43934 1
49108 43927 43932 1
49109 43926 43935 1
49110 43937 43936 1
49111 43938 43937 1
49112 43924 43936 1
49113 43925 43938 1
49114 43940 43939 2
49115 43941 43940 1
49116 43942 43941 1
49117 43937 43939 1
49118 43936 43942 2
49119 43944 43943 1
49120 43945 43944 1
49121 43946 43945 2
49122 43940 43943 1
49123 43939 43946 1
49124 43948 43947 1
49125 43949 43948 1
49126 43950 43949 1
49127 43946 43947 1
49128 43945 43950 1
49129 43952 43951 1
49130 43938 43952 1
49131 43935 43951 1
49132 43954 43953 1
49133 43955 43954 1
49134 43951 43955 1
49135 43934 43953 1
49136 43957 43956 1
49137 43958 43957 1
49138 43959 43958 1
49139 43954 43956 1
49140 43953 43959 1
49141 43961 43960 1
49142 43962 43961 1
49143 43963 43962 1
49144 43958 43960 1
49145 43957 43963 1
49146 43965 43964 1
49147 43966 43965 1
49148 43967 43966 1
49149 43962 43964 1
49150 43961 43967 1
49151 43969 43968 1
49152 43933 43969 1
49153 43959 43968 1
49154 43971 43970 1
49155 43968 43971 1
49156 43960 43970 1
49157 43973 43972 1
49158 43970 43973 1
49159 43967 43972 1
49160 43975 43974 1
49161 43976 43975 1
49162 43972 43976 1
49163 43966 43974 1
49164 43978 43977 1
49165 43979 43978 1
49166 43980 43979 1
49167 43965 43977 1
49168 43964 43980 1
49169 43982 43981 1
49170 43983 43982 1
49171 43984 43983 1
49172 43979 43981 1
49173 43978 43984 1
49174 43986 43985 1
49175 43987 43986 1
49176 43988 43987 1
49177 43984 43985 1
49178 43983 43988 1
49179 43990 43989 1
49180 43991 43990 1
49181 43973 43991 1
49182 43971 43989 1
49183 43993 43992 1
49184 43994 43993 1
49185 43995 43994 1
49186 43990 43992 1
49187 43989 43995 1
49188 43997 43996 1
49189 43998 43997 1
49190 43999 43998 1
49191 43994 43996 1
49192 43993 43999 1
49193 44001 44000 1
49194 43991 44001 1
49195 43976 44000 1
49196 44003 44002 1
49197 44004 44003 1
49198 44000 44004 1
49199 43975 44002 1
49200 44006 44005 1
49201 44007 44006 1
49202 43974 44007 1
49203 44002 44005 1
49204 44009 44008 1
49205 44010 44009 1
49206 44003 44008 1
49207 44005 44010 1
49208 44012 44011 1
49209 44013 44012 1
49210 44006 44011 1
49211 44010 44013 1
49212 44015 44014 1
49213 44016 44015 1
49214 44017 44016 1
49215 44012 44014 1
49216 44011 44017 1
49217 44019 44018 1
49218 44020 44019 1
49219 44009 44020 1
49220 44013 44018 1
49221 44014 44021 1
49222 44018 44022 1
49223 44021 44022 1
49224 43948 44023 1
49225 44023 44024 1
49226 44023 44025 1
49227 43980 44026 1
49228 44028 44027 1
49229 44029 44028 1
49230 44030 44029 1
49231 44020 44027 1
49232 44019 44030 1
49233 44032 44031 1
49234 44033 44032 1
49235 44034 44033 1
49236 44030 44031 1
49237 44029 44034 1
49238 44036 44035 1
49239 44037 44036 1
49240 44038 44037 1
49241 44033 44035 1
49242 44032 44038 1
49243 44040 44039 1
49244 44041 44040 1
49245 44031 44041 1
49246 44038 44039 1
49247 44043 44042 1
49248 44044 44043 1
49249 44037 44044 1
49250 44039 44042 1
49251 44046 44045 1
49252 44040 44046 1
49253 44022 44041 1
49254 44021 44045 1
49255 44048 44047 1
49256 44046 44048 1
49257 44042 44047 1
49258 44050 44049 1
49259 44051 44050 1
49260 44052 44051 1
49261 44048 44049 1
49262 44047 44052 1
49263 44052 44053 2
49264 43907 44054 1
49265 43907 44055 1
49266 43908 44056 1
49267 43908 44057 1
49268 43909 44058 1
49269 43910 44059 1
49270 43911 44060 1
49271 43911 44061 1
49272 43913 44062 1
49273 43914 44063 1
49274 43915 44064 1
49275 43915 44065 1
49276 43916 44066 1
49277 43916 44067 1
49278 43918 44068 1
49279 43919 44069 1
49280 43920 44070 1
49281 43920 44071 1
49282 43924 44072 1
49283 43929 44073 1
49284 43929 44074 1
49285 43930 44075 1
49286 43930 44076 1
49287 43931 44077 1
49288 43941 44079 1
49289 43941 44080 1
49290 43942 44081 1
49291 43943 44082 1
49292 43943 44083 1
49293 43944 44084 1
49294 43944 44085 1
49295 43947 44086 1
49296 43947 44087 1
49297 43948 44088 1
49298 43949 44089 1
49299 43949 44090 1
49300 43950 44091 1
49301 43950 44092 1
49302 43952 44093 1
49303 43956 44094 1
49304 43963 44095 1
49305 43969 44096 1
49306 43978 44097 1
49307 43979 44098 1
49308 43980 44099 1
49309 43981 44100 1
49310 43981 44101 1
49311 43982 44102 1
49312 43982 44103 1
49313 43983 44104 1
49314 43984 44105 1
49315 43985 44106 1
49316 43985 44107 1
49317 43986 44108 1
49318 43986 44109 1
49319 43987 44110 1
49320 43987 44111 1
49321 43988 44112 1
49322 43993 44113 1
49323 43994 44114 1
49324 43996 44115 1
49325 43996 44116 1
49326 43997 44117 1
49327 43997 44118 1
49328 43998 44119 1
49329 43998 44120 1
49330 43999 44121 1
49331 43999 44122 1
49332 44001 44123 1
49333 44004 44124 1
49334 44007 44125 1
49335 44011 44126 1
49336 44012 44127 1
49337 44014 44128 1
49338 44015 44129 1
49339 44015 44130 1
49340 44016 44131 1
49341 44016 44132 1
49342 44017 44133 1
49343 44017 44134 1
49344 44023 44135 1
49345 44024 44136 1
49346 44024 44137 1
49347 44024 44138 1
49348 44025 44139 1
49349 44025 44140 1
49350 44025 44141 1
49351 44026 44142 1
49352 44027 44143 1
49353 44028 44144 1
49354 44034 44145 1
49355 44035 44146 1
49356 44036 44147 1
49357 44043 44148 1
49358 44044 44149 1
49359 44045 44150 1
49360 44049 44151 1
49361 44049 44152 1
49362 44050 44153 1
49363 44050 44154 1
49364 44051 44155 1
49365 44051 44156 1
49366 43937 44078 1
49367 44159 44158 1
49368 44160 44159 1
49369 44161 44160 1
49370 44162 44161 1
49371 44157 44158 1
49372 44157 44162 1
49373 44164 44163 1
49374 44165 44164 1
49375 44166 44165 1
49376 44160 44163 1
49377 44159 44166 1
49378 44168 44167 1
49379 44169 44168 1
49380 44170 44169 1
49381 44164 44167 1
49382 44163 44170 1
49383 44172 44171 1
49384 44173 44172 1
49385 44174 44173 1
49386 44169 44171 1
49387 44168 44174 1
49388 44176 44175 1
49389 44177 44176 1
49390 44178 44177 1
49391 44173 44175 1
49392 44172 44178 1
49393 44180 44179 1
49394 44181 44180 1
49395 44171 44181 2
49396 44178 44179 1
49397 44183 44182 1
49398 44184 44183 1
49399 44185 44184 1
49400 44177 44182 1
49401 44176 44185 1
49402 44187 44186 1
49403 44188 44187 1
49404 44174 44186 1
49405 44175 44188 1
49406 44190 44189 2
49407 44191 44190 1
49408 44192 44191 1
49409 44187 44189 1
49410 44186 44192 2
49411 44194 44193 1
49412 44195 44194 1
49413 44196 44195 2
49414 44190 44193 1
49415 44189 44196 1
49416 44198 44197 1
49417 44199 44198 1
49418 44200 44199 1
49419 44196 44197 1
49420 44195 44200 1
49421 44202 44201 1
49422 44188 44202 1
49423 44185 44201 1
49424 44204 44203 1
49425 44205 44204 1
49426 44201 44205 1
49427 44184 44203 1
49428 44207 44206 1
49429 44208 44207 1
49430 44209 44208 1
49431 44204 44206 1
49432 44203 44209 1
49433 44211 44210 1
49434 44212 44211 1
49435 44213 44212 1
49436 44208 44210 1
49437 44207 44213 1
49438 44215 44214 1
49439 44216 44215 1
49440 44217 44216 1
49441 44212 44214 1
49442 44211 44217 1
49443 44219 44218 1
49444 44183 44219 1
49445 44209 44218 1
49446 44221 44220 1
49447 44218 44221 1
49448 44210 44220 1
49449 44223 44222 1
49450 44220 44223 1
49451 44217 44222 1
49452 44225 44224 1
49453 44226 44225 1
49454 44222 44226 1
49455 44216 44224 1
49456 44228 44227 1
49457 44229 44228 1
49458 44230 44229 1
49459 44215 44227 1
49460 44214 44230 1
49461 44232 44231 1
49462 44233 44232 1
49463 44234 44233 1
49464 44229 44231 1
49465 44228 44234 1
49466 44236 44235 1
49467 44237 44236 1
49468 44238 44237 1
49469 44234 44235 1
49470 44233 44238 1
49471 44240 44239 1
49472 44241 44240 1
49473 44223 44241 1
49474 44221 44239 1
49475 44243 44242 1
49476 44244 44243 1
49477 44245 44244 1
49478 44240 44242 1
49479 44239 44245 1
49480 44247 44246 1
49481 44248 44247 1
49482 44249 44248 1
49483 44244 44246 1
49484 44243 44249 1
49485 44251 44250 1
49486 44241 44251 1
49487 44226 44250 1
49488 44253 44252 1
49489 44254 44253 1
49490 44250 44254 1
49491 44225 44252 1
49492 44256 44255 1
49493 44257 44256 1
49494 44224 44257 1
49495 44252 44255 1
49496 44259 44258 1
49497 44260 44259 1
49498 44253 44258 1
49499 44255 44260 1
49500 44262 44261 1
49501 44263 44262 1
49502 44256 44261 1
49503 44260 44263 1
49504 44265 44264 1
49505 44266 44265 1
49506 44267 44266 1
49507 44262 44264 1
49508 44261 44267 1
49509 44269 44268 1
49510 44270 44269 1
49511 44259 44270 1
49512 44263 44268 1
49513 44264 44271 1
49514 44268 44272 1
49515 44271 44272 1
49516 44198 44273 1
49517 44273 44274 1
49518 44273 44275 1
49519 44230 44276 1
49520 44278 44277 1
49521 44279 44278 1
49522 44280 44279 1
49523 44270 44277 1
49524 44269 44280 1
49525 44282 44281 1
49526 44283 44282 1
49527 44284 44283 1
49528 44280 44281 1
49529 44279 44284 1
49530 44286 44285 1
49531 44287 44286 1
49532 44288 44287 1
49533 44283 44285 1
49534 44282 44288 1
49535 44290 44289 1
49536 44291 44290 1
49537 44281 44291 1
49538 44288 44289 1
49539 44293 44292 1
49540 44294 44293 1
49541 44287 44294 1
49542 44289 44292 1
49543 44296 44295 1
49544 44290 44296 1
49545 44272 44291 1
49546 44271 44295 1
49547 44298 44297 1
49548 44296 44298 1
49549 44292 44297 1
49550 44300 44299 1
49551 44301 44300 1
49552 44302 44301 1
49553 44298 44299 1
49554 44297 44302 1
49555 44302 44303 2
49556 44157 44304 1
49557 44157 44305 1
49558 44158 44306 1
49559 44158 44307 1
49560 44159 44308 1
49561 44160 44309 1
49562 44161 44310 1
49563 44161 44311 1
49564 44163 44312 1
49565 44164 44313 1
49566 44165 44314 1
49567 44165 44315 1
49568 44166 44316 1
49569 44166 44317 1
49570 44168 44318 1
49571 44169 44319 1
49572 44170 44320 1
49573 44170 44321 1
49574 44174 44322 1
49575 44179 44323 1
49576 44179 44324 1
49577 44180 44325 1
49578 44180 44326 1
49579 44181 44327 1
49580 44191 44329 1
49581 44191 44330 1
49582 44192 44331 1
49583 44193 44332 1
49584 44193 44333 1
49585 44194 44334 1
49586 44194 44335 1
49587 44197 44336 1
49588 44197 44337 1
49589 44198 44338 1
49590 44199 44339 1
49591 44199 44340 1
49592 44200 44341 1
49593 44200 44342 1
49594 44202 44343 1
49595 44206 44344 1
49596 44213 44345 1
49597 44219 44346 1
49598 44228 44347 1
49599 44229 44348 1
49600 44230 44349 1
49601 44231 44350 1
49602 44231 44351 1
49603 44232 44352 1
49604 44232 44353 1
49605 44233 44354 1
49606 44234 44355 1
49607 44235 44356 1
49608 44235 44357 1
49609 44236 44358 1
49610 44236 44359 1
49611 44237 44360 1
49612 44237 44361 1
49613 44238 44362 1
49614 44243 44363 1
49615 44244 44364 1
49616 44246 44365 1
49617 44246 44366 1
49618 44247 44367 1
49619 44247 44368 1
49620 44248 44369 1
49621 44248 44370 1
49622 44249 44371 1
49623 44249 44372 1
49624 44251 44373 1
49625 44254 44374 1
49626 44257 44375 1
49627 44261 44376 1
49628 44262 44377 1
49629 44264 44378 1
49630 44265 44379 1
49631 44265 44380 1
49632 44266 44381 1
49633 44266 44382 1
49634 44267 44383 1
49635 44267 44384 1
49636 44273 44385 1
49637 44274 44386 1
49638 44274 44387 1
49639 44274 44388 1
49640 44275 44389 1
49641 44275 44390 1
49642 44275 44391 1
49643 44276 44392 1
49644 44277 44393 1
49645 44278 44394 1
49646 44284 44395 1
49647 44285 44396 1
49648 44286 44397 1
49649 44293 44398 1
49650 44294 44399 1
49651 44295 44400 1
49652 44299 44401 1
49653 44299 44402 1
49654 44300 44403 1
49655 44300 44404 1
49656 44301 44405 1
49657 44301 44406 1
49658 44187 44328 1
49659 44409 44408 1
49660 44410 44409 1
49661 44411 44410 1
49662 44412 44411 1
49663 44407 44408 1
49664 44407 44412 1
49665 44414 44413 1
49666 44415 44414 1
49667 44416 44415 1
49668 44410 44413 1
49669 44409 44416 1
49670 44418 44417 1
49671 44419 44418 1
49672 44420 44419 1
49673 44414 44417 1
49674 44413 44420 1
49675 44422 44421 1
49676 44423 44422 1
49677 44424 44423 1
49678 44419 44421 1
49679 44418 44424 1
49680 44426 44425 1
49681 44427 44426 1
49682 44428 44427 1
49683 44423 44425 1
49684 44422 44428 1
49685 44430 44429 1
49686 44431 44430 1
49687 44421 44431 2
49688 44428 44429 1
49689 44433 44432 1
49690 44434 44433 1
49691 44435 44434 1
49692 44427 44432 1
49693 44426 44435 1
49694 44437 44436 1
49695 44438 44437 1
49696 44424 44436 1
49697 44425 44438 1
49698 44440 44439 2
49699 44441 44440 1
49700 44442 44441 1
49701 44437 44439 1
49702 44436 44442 2
49703 44444 44443 1
49704 44445 44444 1
49705 44446 44445 2
49706 44440 44443 1
49707 44439 44446 1
49708 44448 44447 1
49709 44449 44448 1
49710 44450 44449 1
49711 44446 44447 1
49712 44445 44450 1
49713 44452 44451 1
49714 44438 44452 1
49715 44435 44451 1
49716 44454 44453 1
49717 44455 44454 1
49718 44451 44455 1
49719 44434 44453 1
49720 44457 44456 1
49721 44458 44457 1
49722 44459 44458 1
49723 44454 44456 1
49724 44453 44459 1
49725 44461 44460 1
49726 44462 44461 1
49727 44463 44462 1
49728 44458 44460 1
49729 44457 44463 1
49730 44465 44464 1
49731 44466 44465 1
49732 44467 44466 1
49733 44462 44464 1
49734 44461 44467 1
49735 44469 44468 1
49736 44433 44469 1
49737 44459 44468 1
49738 44471 44470 1
49739 44468 44471 1
49740 44460 44470 1
49741 44473 44472 1
49742 44470 44473 1
49743 44467 44472 1
49744 44475 44474 1
49745 44476 44475 1
49746 44472 44476 1
49747 44466 44474 1
49748 44478 44477 1
49749 44479 44478 1
49750 44480 44479 1
49751 44465 44477 1
49752 44464 44480 1
49753 44482 44481 1
49754 44483 44482 1
49755 44484 44483 1
49756 44479 44481 1
49757 44478 44484 1
49758 44486 44485 1
49759 44487 44486 1
49760 44488 44487 1
49761 44484 44485 1
49762 44483 44488 1
49763 44490 44489 1
49764 44491 44490 1
49765 44473 44491 1
49766 44471 44489 1
49767 44493 44492 1
49768 44494 44493 1
49769 44495 44494 1
49770 44490 44492 1
49771 44489 44495 1
49772 44497 44496 1
49773 44498 44497 1
49774 44499 44498 1
49775 44494 44496 1
49776 44493 44499 1
49777 44501 44500 1
49778 44491 44501 1
49779 44476 44500 1
49780 44503 44502 1
49781 44504 44503 1
49782 44500 44504 1
49783 44475 44502 1
49784 44506 44505 1
49785 44507 44506 1
49786 44474 44507 1
49787 44502 44505 1
49788 44509 44508 1
49789 44510 44509 1
49790 44503 44508 1
49791 44505 44510 1
49792 44512 44511 1
49793 44513 44512 1
49794 44506 44511 1
49795 44510 44513 1
49796 44515 44514 1
49797 44516 44515 1
49798 44517 44516 1
49799 44512 44514 1
49800 44511 44517 1
49801 44519 44518 1
49802 44520 44519 1
49803 44509 44520 1
49804 44513 44518 1
49805 44514 44521 1
49806 44518 44522 1
49807 44521 44522 1
49808 44448 44523 1
49809 44523 44524 1
49810 44523 44525 1
49811 44480 44526 1
49812 44528 44527 1
49813 44529 44528 1
49814 44530 44529 1
49815 44520 44527 1
49816 44519 44530 1
49817 44532 44531 1
49818 44533 44532 1
49819 44534 44533 1
49820 44530 44531 1
49821 44529 44534 1
49822 44536 44535 1
49823 44537 44536 1
49824 44538 44537 1
49825 44533 44535 1
49826 44532 44538 1
49827 44540 44539 1
49828 44541 44540 1
49829 44531 44541 1
49830 44538 44539 1
49831 44543 44542 1
49832 44544 44543 1
49833 44537 44544 1
49834 44539 44542 1
49835 44546 44545 1
49836 44540 44546 1
49837 44522 44541 1
49838 44521 44545 1
49839 44548 44547 1
49840 44546 44548 1
49841 44542 44547 1
49842 44550 44549 1
49843 44551 44550 1
49844 44552 44551 1
49845 44548 44549 1
49846 44547 44552 1
49847 44552 44553 2
49848 44407 44554 1
49849 44407 44555 1
49850 44408 44556 1
49851 44408 44557 1
49852 44409 44558 1
49853 44410 44559 1
49854 44411 44560 1
49855 44411 44561 1
49856 44413 44562 1
49857 44414 44563 1
49858 44415 44564 1
49859 44415 44565 1
49860 44416 44566 1
49861 44416 44567 1
49862 44418 44568 1
49863 44419 44569 1
49864 44420 44570 1
49865 44420 44571 1
49866 44424 44572 1
49867 44429 44573 1
49868 44429 44574 1
49869 44430 44575 1
49870 44430 44576 1
49871 44431 44577 1
49872 44441 44579 1
49873 44441 44580 1
49874 44442 44581 1
49875 44443 44582 1
49876 44443 44583 1
49877 44444 44584 1
49878 44444 44585 1
49879 44447 44586 1
49880 44447 44587 1
49881 44448 44588 1
49882 44449 44589 1
49883 44449 44590 1
49884 44450 44591 1
49885 44450 44592 1
49886 44452 44593 1
49887 44456 44594 1
49888 44463 44595 1
49889 44469 44596 1
49890 44478 44597 1
49891 44479 44598 1
49892 44480 44599 1
49893 44481 44600 1
49894 44481 44601 1
49895 44482 44602 1
49896 44482 44603 1
49897 44483 44604 1
49898 44484 44605 1
49899 44485 44606 1
49900 44485 44607 1
49901 44486 44608 1
49902 44486 44609 1
49903 44487 44610 1
49904 44487 44611 1
49905 44488 44612 1
49906 44493 44613 1
49907 44494 44614 1
49908 44496 44615 1
49909 44496 44616 1
49910 44497 44617 1
49911 44497 44618 1
49912 44498 44619 1
49913 44498 44620 1
49914 44499 44621 1
49915 44499 44622 1
49916 44501 44623 1
49917 44504 44624 1
49918 44507 44625 1
49919 44511 44626 1
49920 44512 44627 1
49921 44514 44628 1
49922 44515 44629 1
49923 44515 44630 1
49924 44516 44631 1
49925 44516 44632 1
49926 44517 44633 1
49927 44517 44634 1
49928 44523 44635 1
49929 44524 44636 1
49930 44524 44637 1
49931 44524 44638 1
49932 44525 44639 1
49933 44525 44640 1
49934 44525 44641 1
49935 44526 44642 1
49936 44527 44643 1
49937 44528 44644 1
49938 44534 44645 1
49939 44535 44646 1
49940 44536 44647 1
49941 44543 44648 1
49942 44544 44649 1
49943 44545 44650 1
49944 44549 44651 1
49945 44549 44652 1
49946 44550 44653 1
49947 44550 44654 1
49948 44551 44655 1
49949 44551 44656 1
49950 44437 44578 1
49951 44659 44658 1
49952 44660 44659 1
49953 44661 44660 1
49954 44662 44661 1
49955 44657 44658 1
49956 44657 44662 1
49957 44664 44663 1
49958 44665 44664 1
49959 44666 44665 1
49960 44660 44663 1
49961 44659 44666 1
49962 44668 44667 1
49963 44669 44668 1
49964 44670 44669 1
49965 44664 44667 1
49966 44663 44670 1
49967 44672 44671 1
49968 44673 44672 1
49969 44674 44673 1
49970 44669 44671 1
49971 44668 44674 1
49972 44676 44675 1
49973 44677 44676 1
49974 44678 44677 1
49975 44673 44675 1
49976 44672 44678 1
49977 44680 44679 1
49978 44681 44680 1
49979 44671 44681 2
49980 44678 44679 1
49981 44683 44682 1
49982 44684 44683 1
49983 44685 44684 1
49984 44677 44682 1
49985 44676 44685 1
49986 44687 44686 1
49987 44688 44687 1
49988 44674 44686 1
49989 44675 44688 1
49990 44690 44689 2
49991 44691 44690 1
49992 44692 44691 1
49993 44687 44689 1
49994 44686 44692 2
49995 44694 44693 1
49996 44695 44694 1
49997 44696 44695 2
49998 44690 44693 1
49999 44689 44696 1
50000 44698 44697 1
50001 44699 44698 1
50002 44700 44699 1
50003 44696 44697 1
50004 44695 44700 1
50005 44702 44701 1
50006 44688 44702 1
50007 44685 44701 1
50008 44704 44703 1
50009 44705 44704 1
50010 44701 44705 1
50011 44684 44703 1
50012 44707 44706 1
50013 44708 44707 1
50014 44709 44708 1
50015 44704 44706 1
50016 44703 44709 1
50017 44711 44710 1
50018 44712 44711 1
50019 44713 44712 1
50020 44708 44710 1
50021 44707 44713 1
50022 44715 44714 1
50023 44716 44715 1
50024 44717 44716 1
50025 44712 44714 1
50026 44711 44717 1
50027 44719 44718 1
50028 44683 44719 1
50029 44709 44718 1
50030 44721 44720 1
50031 44718 44721 1
50032 44710 44720 1
50033 44723 44722 1
50034 44720 44723 1
50035 44717 44722 1
50036 44725 44724 1
50037 44726 44725 1
50038 44722 44726 1
50039 44716 44724 1
50040 44728 44727 1
50041 44729 44728 1
50042 44730 44729 1
50043 44715 44727 1
50044 44714 44730 1
50045 44732 44731 1
50046 44733 44732 1
50047 44734 44733 1
50048 44729 44731 1
50049 44728 44734 1
50050 44736 44735 1
50051 44737 44736 1
50052 44738 44737 1
50053 44734 44735 1
50054 44733 44738 1
50055 44740 44739 1
50056 44741 44740 1
50057 44723 44741 1
50058 44721 44739 1
50059 44743 44742 1
50060 44744 44743 1
50061 44745 44744 1
50062 44740 44742 1
50063 44739 44745 1
50064 44747 44746 1
50065 44748 44747 1
50066 44749 44748 1
50067 44744 44746 1
50068 44743 44749 1
50069 44751 44750 1
50070 44741 44751 1
50071 44726 44750 1
50072 44753 44752 1
50073 44754 44753 1
50074 44750 44754 1
50075 44725 44752 1
50076 44756 44755 1
50077 44757 44756 1
50078 44724 44757 1
50079 44752 44755 1
50080 44759 44758 1
50081 44760 44759 1
50082 44753 44758 1
50083 44755 44760 1
50084 44762 44761 1
50085 44763 44762 1
50086 44756 44761 1
50087 44760 44763 1
50088 44765 44764 1
50089 44766 44765 1
50090 44767 44766 1
50091 44762 44764 1
50092 44761 44767 1
50093 44769 44768 1
50094 44770 44769 1
50095 44759 44770 1
50096 44763 44768 1
50097 44764 44771 1
50098 44768 44772 1
50099 44771 44772 1
50100 44698 44773 1
50101 44773 44774 1
50102 44773 44775 1
50103 44730 44776 1
50104 44778 44777 1
50105 44779 44778 1
50106 44780 44779 1
50107 44770 44777 1
50108 44769 44780 1
50109 44782 44781 1
50110 44783 44782 1
50111 44784 44783 1
50112 44780 44781 1
50113 44779 44784 1
50114 44786 44785 1
50115 44787 44786 1
50116 44788 44787 1
50117 44783 44785 1
50118 44782 44788 1
50119 44790 44789 1
50120 44791 44790 1
50121 44781 44791 1
50122 44788 44789 1
50123 44793 44792 1
50124 44794 44793 1
50125 44787 44794 1
50126 44789 44792 1
50127 44796 44795 1
50128 44790 44796 1
50129 44772 44791 1
50130 44771 44795 1
50131 44798 44797 1
50132 44796 44798 1
50133 44792 44797 1
50134 44800 44799 1
50135 44801 44800 1
50136 44802 44801 1
50137 44798 44799 1
50138 44797 44802 1
50139 44802 44803 2
50140 44657 44804 1
50141 44657 44805 1
50142 44658 44806 1
50143 44658 44807 1
50144 44659 44808 1
50145 44660 44809 1
50146 44661 44810 1
50147 44661 44811 1
50148 44663 44812 1
50149 44664 44813 1
50150 44665 44814 1
50151 44665 44815 1
50152 44666 44816 1
50153 44666 44817 1
50154 44668 44818 1
50155 44669 44819 1
50156 44670 44820 1
50157 44670 44821 1
50158 44674 44822 1
50159 44679 44823 1
50160 44679 44824 1
50161 44680 44825 1
50162 44680 44826 1
50163 44681 44827 1
50164 44691 44829 1
50165 44691 44830 1
50166 44692 44831 1
50167 44693 44832 1
50168 44693 44833 1
50169 44694 44834 1
50170 44694 44835 1
50171 44697 44836 1
50172 44697 44837 1
50173 44698 44838 1
50174 44699 44839 1
50175 44699 44840 1
50176 44700 44841 1
50177 44700 44842 1
50178 44702 44843 1
50179 44706 44844 1
50180 44713 44845 1
50181 44719 44846 1
50182 44728 44847 1
50183 44729 44848 1
50184 44730 44849 1
50185 44731 44850 1
50186 44731 44851 1
50187 44732 44852 1
50188 44732 44853 1
50189 44733 44854 1
50190 44734 44855 1
50191 44735 44856 1
50192 44735 44857 1
50193 44736 44858 1
50194 44736 44859 1
50195 44737 44860 1
50196 44737 44861 1
50197 44738 44862 1
50198 44743 44863 1
50199 44744 44864 1
50200 44746 44865 1
50201 44746 44866 1
50202 44747 44867 1
50203 44747 44868 1
50204 44748 44869 1
50205 44748 44870 1
50206 44749 44871 1
50207 44749 44872 1
50208 44751 44873 1
50209 44754 44874 1
50210 44757 44875 1
50211 44761 44876 1
50212 44762 44877 1
50213 44764 44878 1
50214 44765 44879 1
50215 44765 44880 1
50216 44766 44881 1
50217 44766 44882 1
50218 44767 44883 1
50219 44767 44884 1
50220 44773 44885 1
50221 44774 44886 1
50222 44774 44887 1
50223 44774 44888 1
50224 44775 44889 1
50225 44775 44890 1
50226 44775 44891 1
50227 44776 44892 1
50228 44777 44893 1
50229 44778 44894 1
50230 44784 44895 1
50231 44785 44896 1
50232 44786 44897 1
50233 44793 44898 1
50234 44794 44899 1
50235 44795 44900 1
50236 44799 44901 1
50237 44799 44902 1
50238 44800 44903 1
50239 44800 44904 1
50240 44801 44905 1
50241 44801 44906 1
50242 44687 44828 1
50243 44909 44908 1
50244 44910 44909 1
50245 44911 44910 1
50246 44912 44911 1
50247 44907 44908 1
50248 44907 44912 1
50249 44914 44913 1
50250 44915 44914 1
50251 44916 44915 1
50252 44910 44913 1
50253 44909 44916 1
50254 44918 44917 1
50255 44919 44918 1
50256 44920 44919 1
50257 44914 44917 1
50258 44913 44920 1
50259 44922 44921 1
50260 44923 44922 1
50261 44924 44923 1
50262 44919 44921 1
50263 44918 44924 1
50264 44926 44925 1
50265 44927 44926 1
50266 44928 44927 1
50267 44923 44925 1
50268 44922 44928 1
50269 44930 44929 1
50270 44931 44930 1
50271 44921 44931 2
50272 44928 44929 1
50273 44933 44932 1
50274 44934 44933 1
50275 44935 44934 1
50276 44927 44932 1
50277 44926 44935 1
50278 44937 44936 1
50279 44938 44937 1
50280 44924 44936 1
50281 44925 44938 1
50282 44940 44939 2
50283 44941 44940 1
50284 44942 44941 1
50285 44937 44939 1
50286 44936 44942 2
50287 44944 44943 1
50288 44945 44944 1
50289 44946 44945 2
50290 44940 44943 1
50291 44939 44946 1
50292 44948 44947 1
50293 44949 44948 1
50294 44950 44949 1
50295 44946 44947 1
50296 44945 44950 1
50297 44952 44951 1
50298 44938 44952 1
50299 44935 44951 1
50300 44954 44953 1
50301 44955 44954 1
50302 44951 44955 1
50303 44934 44953 1
50304 44957 44956 1
50305 44958 44957 1
50306 44959 44958 1
50307 44954 44956 1
50308 44953 44959 1
50309 44961 44960 1
50310 44962 44961 1
50311 44963 44962 1
50312 44958 44960 1
50313 44957 44963 1
50314 44965 44964 1
50315 44966 44965 1
50316 44967 44966 1
50317 44962 44964 1
50318 44961 44967 1
50319 44969 44968 1
50320 44933 44969 1
50321 44959 44968 1
50322 44971 44970 1
50323 44968 44971 1
50324 44960 44970 1
50325 44973 44972 1
50326 44970 44973 1
50327 44967 44972 1
50328 44975 44974 1
50329 44976 44975 1
50330 44972 44976 1
50331 44966 44974 1
50332 44978 44977 1
50333 44979 44978 1
50334 44980 44979 1
50335 44965 44977 1
50336 44964 44980 1
50337 44982 44981 1
50338 44983 44982 1
50339 44984 44983 1
50340 44979 44981 1
50341 44978 44984 1
50342 44986 44985 1
50343 44987 44986 1
50344 44988 44987 1
50345 44984 44985 1
50346 44983 44988 1
50347 44990 44989 1
50348 44991 44990 1
50349 44973 44991 1
50350 44971 44989 1
50351 44993 44992 1
50352 44994 44993 1
50353 44995 44994 1
50354 44990 44992 1
50355 44989 44995 1
50356 44997 44996 1
50357 44998 44997 1
50358 44999 44998 1
50359 44994 44996 1
50360 44993 44999 1
50361 45001 45000 1
50362 44991 45001 1
50363 44976 45000 1
50364 45003 45002 1
50365 45004 45003 1
50366 45000 45004 1
50367 44975 45002 1
50368 45006 45005 1
50369 45007 45006 1
50370 44974 45007 1
50371 45002 45005 1
50372 45009 45008 1
50373 45010 45009 1
50374 45003 45008 1
50375 45005 45010 1
50376 45012 45011 1
50377 45013 45012 1
50378 45006 45011 1
50379 45010 45013 1
50380 45015 45014 1
50381 45016 45015 1
50382 45017 45016 1
50383 45012 45014 1
50384 45011 45017 1
50385 45019 45018 1
50386 45020 45019 1
50387 45009 45020 1
50388 45013 45018 1
50389 45014 45021 1
50390 45018 45022 1
50391 45021 45022 1
50392 44948 45023 1
50393 45023 45024 1
50394 45023 45025 1
50395 44980 45026 1
50396 45028 45027 1
50397 45029 45028 1
50398 45030 45029 1
50399 45020 45027 1
50400 45019 45030 1
50401 45032 45031 1
50402 45033 45032 1
50403 45034 45033 1
50404 45030 45031 1
50405 45029 45034 1
50406 45036 45035 1
50407 45037 45036 1
50408 45038 45037 1
50409 45033 45035 1
50410 45032 45038 1
50411 45040 45039 1
50412 45041 45040 1
50413 45031 45041 1
50414 45038 45039 1
50415 45043 45042 1
50416 45044 45043 1
50417 45037 45044 1
50418 45039 45042 1
50419 45046 45045 1
50420 45040 45046 1
50421 45022 45041 1
50422 45021 45045 1
50423 45048 45047 1
50424 45046 45048 1
50425 45042 45047 1
50426 45050 45049 1
50427 45051 45050 1
50428 45052 45051 1
50429 45048 45049 1
50430 45047 45052 1
50431 45052 45053 2
50432 44907 45054 1
50433 44907 45055 1
50434 44908 45056 1
50435 44908 45057 1
50436 44909 45058 1
50437 44910 45059 1
50438 44911 45060 1
50439 44911 45061 1
50440 44913 45062 1
50441 44914 45063 1
50442 44915 45064 1
50443 44915 45065 1
50444 44916 45066 1
50445 44916 45067 1
50446 44918 45068 1
50447 44919 45069 1
50448 44920 45070 1
50449 44920 45071 1
50450 44924 45072 1
50451 44929 45073 1
50452 44929 45074 1
50453 44930 45075 1
50454 44930 45076 1
50455 44931 45077 1
50456 44941 45079 1
50457 44941 45080 1
50458 44942 45081 1
50459 44943 45082 1
50460 44943 45083 1
50461 44944 45084 1
50462 44944 45085 1
50463 44947 45086 1
50464 44947 45087 1
50465 44948 45088 1
50466 44949 45089 1
50467 44949 45090 1
50468 44950 45091 1
50469 44950 45092 1
50470 44952 45093 1
50471 44956 45094 1
50472 44963 45095 1
50473 44969 45096 1
50474 44978 45097 1
50475 44979 45098 1
50476 44980 45099 1
50477 44981 45100 1
50478 44981 45101 1
50479 44982 45102 1
50480 44982 45103 1
50481 44983 45104 1
50482 44984 45105 1
50483 44985 45106 1
50484 44985 45107 1
50485 44986 45108 1
50486 44986 45109 1
50487 44987 45110 1
50488 44987 45111 1
50489 44988 45112 1
50490 44993 45113 1
50491 44994 45114 1
50492 44996 45115 1
50493 44996 45116 1
50494 44997 45117 1
50495 44997 45118 1
50496 44998 45119 1
50497 44998 45120 1
50498 44999 45121 1
50499 44999 45122 1
50500 45001 45123 1
50501 45004 45124 1
50502 45007 45125 1
50503 45011 45126 1
50504 45012 45127 1
50505 45014 45128 1
50506 45015 45129 1
50507 45015 45130 1
50508 45016 45131 1
50509 45016 45132 1
50510 45017 45133 1
50511 45017 45134 1
50512 45023 45135 1
50513 45024 45136 1
50514 45024 45137 1
50515 45024 45138 1
50516 45025 45139 1
50517 45025 45140 1
50518 45025 45141 1
50519 45026 45142 1
50520 45027 45143 1
50521 45028 45144 1
50522 45034 45145 1
50523 45035 45146 1
50524 45036 45147 1
50525 45043 45148 1
50526 45044 45149 1
50527 45045 45150 1
50528 45049 45151 1
50529 45049 45152 1
50530 45050 45153 1
50531 45050 45154 1
50532 45051 45155 1
50533 45051 45156 1
50534 44937 45078 1
50535 45159 45158 1
50536 45160 45159 1
50537 45161 45160 1
50538 45162 45161 1
50539 45157 45158 1
50540 45157 45162 1
50541 45164 45163 1
50542 45165 45164 1
50543 45166 45165 1
50544 45160 45163 1
50545 45159 45166 1
50546 45168 45167 1
50547 45169 45168 1
50548 45170 45169 1
50549 45164 45167 1
50550 45163 45170 1
50551 45172 45171 1
50552 45173 45172 1
50553 45174 45173 1
50554 45169 45171 1
50555 45168 45174 1
50556 45176 45175 1
50557 45177 45176 1
50558 45178 45177 1
50559 45173 45175 1
50560 45172 45178 1
50561 45180 45179 1
50562 45181 45180 1
50563 45171 45181 2
50564 45178 45179 1
50565 45183 45182 1
50566 45184 45183 1
50567 45185 45184 1
50568 45177 45182 1
50569 45176 45185 1
50570 45187 45186 1
50571 45188 45187 1
50572 45174 45186 1
50573 45175 45188 1
50574 45190 45189 2
50575 45191 45190 1
50576 45192 45191 1
50577 45187 45189 1
50578 45186 45192 2
50579 45194 45193 1
50580 45195 45194 1
50581 45196 45195 2
50582 45190 45193 1
50583 45189 45196 1
50584 45198 45197 1
50585 45199 45198 1
50586 45200 45199 1
50587 45196 45197 1
50588 45195 45200 1
50589 45202 45201 1
50590 45188 45202 1
50591 45185 45201 1
50592 45204 45203 1
50593 45205 45204 1
50594 45201 45205 1
50595 45184 45203 1
50596 45207 45206 1
50597 45208 45207 1
50598 45209 45208 1
50599 45204 45206 1
50600 45203 45209 1
50601 45211 45210 1
50602 45212 45211 1
50603 45213 45212 1
50604 45208 45210 1
50605 45207 45213 1
50606 45215 45214 1
50607 45216 45215 1
50608 45217 45216 1
50609 45212 45214 1
50610 45211 45217 1
50611 45219 45218 1
50612 45183 45219 1
50613 45209 45218 1
50614 45221 45220 1
50615 45218 45221 1
50616 45210 45220 1
50617 45223 45222 1
50618 45220 45223 1
50619 45217 45222 1
50620 45225 45224 1
50621 45226 45225 1
50622 45222 45226 1
50623 45216 45224 1
50624 45228 45227 1
50625 45229 45228 1
50626 45230 45229 1
50627 45215 45227 1
50628 45214 45230 1
50629 45232 45231 1
50630 45233 45232 1
50631 45234 45233 1
50632 45229 45231 1
50633 45228 45234 1
50634 45236 45235 1
50635 45237 45236 1
50636 45238 45237 1
50637 45234 45235 1
50638 45233 45238 1
50639 45240 45239 1
50640 45241 45240 1
50641 45223 45241 1
50642 45221 45239 1
50643 45243 45242 1
50644 45244 45243 1
50645 45245 45244 1
50646 45240 45242 1
50647 45239 45245 1
50648 45247 45246 1
50649 45248 45247 1
50650 45249 45248 1
50651 45244 45246 1
50652 45243 45249 1
50653 45251 45250 1
50654 45241 45251 1
50655 45226 45250 1
50656 45253 45252 1
50657 45254 45253 1
50658 45250 45254 1
50659 45225 45252 1
50660 45256 45255 1
50661 45257 45256 1
50662 45224 45257 1
50663 45252 45255 1
50664 45259 45258 1
50665 45260 45259 1
50666 45253 45258 1
50667 45255 45260 1
50668 45262 45261 1
50669 45263 45262 1
50670 45256 45261 1
50671 45260 45263 1
50672 45265 45264 1
50673 45266 45265 1
50674 45267 45266 1
50675 45262 45264 1
50676 45261 45267 1
50677 45269 45268 1
50678 45270 45269 1
50679 45259 45270 1
50680 45263 45268 1
50681 45264 45271 1
50682 45268 45272 1
50683 45271 45272 1
50684 45198 45273 1
50685 45273 45274 1
50686 45273 45275 1
50687 45230 45276 1
50688 45278 45277 1
50689 45279 45278 1
50690 45280 45279 1
50691 45270 45277 1
50692 45269 45280 1
50693 45282 45281 1
50694 45283 45282 1
50695 45284 45283 1
50696 45280 45281 1
50697 45279 45284 1
50698 45286 45285 1
50699 45287 45286 1
50700 45288 45287 1
50701 45283 45285 1
50702 45282 45288 1
50703 45290 45289 1
50704 45291 45290 1
50705 45281 45291 1
50706 45288 45289 1
50707 45293 45292 1
50708 45294 45293 1
50709 45287 45294 1
50710 45289 45292 1
50711 45296 45295 1
50712 45290 45296 1
50713 45272 45291 1
50714 45271 45295 1
50715 45298 45297 1
50716 45296 45298 1
50717 45292 45297 1
50718 45300 45299 1
50719 45301 45300 1
50720 45302 45301 1
50721 45298 45299 1
50722 45297 45302 1
50723 45302 45303 2
50724 45157 45304 1
50725 45157 45305 1
50726 45158 45306 1
50727 45158 45307 1
50728 45159 45308 1
50729 45160 45309 1
50730 45161 45310 1
50731 45161 45311 1
50732 45163 45312 1
50733 45164 45313 1
50734 45165 45314 1
50735 45165 45315 1
50736 45166 45316 1
50737 45166 45317 1
50738 45168 45318 1
50739 45169 45319 1
50740 45170 45320 1
50741 45170 45321 1
50742 45174 45322 1
50743 45179 45323 1
50744 45179 45324 1
50745 45180 45325 1
50746 45180 45326 1
50747 45181 45327 1
50748 45191 45329 1
50749 45191 45330 1
50750 45192 45331 1
50751 45193 45332 1
50752 45193 45333 1
50753 45194 45334 1
50754 45194 45335 1
50755 45197 45336 1
50756 45197 45337 1
50757 45198 45338 1
50758 45199 45339 1
50759 45199 45340 1
50760 45200 45341 1
50761 45200 45342 1
50762 45202 45343 1
50763 45206 45344 1
50764 45213 45345 1
50765 45219 45346 1
50766 45228 45347 1
50767 45229 45348 1
50768 45230 45349 1
50769 45231 45350 1
50770 45231 45351 1
50771 45232 45352 1
50772 45232 45353 1
50773 45233 45354 1
50774 45234 45355 1
50775 45235 45356 1
50776 45235 45357 1
50777 45236 45358 1
50778 45236 45359 1
50779 45237 45360 1
50780 45237 45361 1
50781 45238 45362 1
50782 45243 45363 1
50783 45244 45364 1
50784 45246 45365 1
50785 45246 45366 1
50786 45247 45367 1
50787 45247 45368 1
50788 45248 45369 1
50789 45248 45370 1
50790 45249 45371 1
50791 45249 45372 1
50792 45251 45373 1
50793 45254 45374 1
50794 45257 45375 1
50795 45261 45376 1
50796 45262 45377 1
50797 45264 45378 1
50798 45265 45379 1
50799 45265 45380 1
50800 45266 45381 1
50801 45266 45382 1
50802 45267 45383 1
50803 45267 45384 1
50804 45273 45385 1
50805 45274 45386 1
50806 45274 45387 1
50807 45274 45388 1
50808 45275 45389 1
50809 45275 45390 1
50810 45275 45391 1
50811 45276 45392 1
50812 45277 45393 1
50813 45278 45394 1
50814 45284 45395 1
50815 45285 45396 1
50816 45286 45397 1
50817 45293 45398 1
50818 45294 45399 1
50819 45295 45400 1
50820 45299 45401 1
50821 45299 45402 1
50822 45300 45403 1
50823 45300 45404 1
50824 45301 45405 1
50825 45301 45406 1
50826 45187 45328 1
50827 45409 45408 1
50828 45410 45409 1
50829 45411 45410 1
50830 45412 45411 1
50831 45407 45408 1
50832 45407 45412 1
50833 45414 45413 1
50834 45415 45414 1
50835 45416 45415 1
50836 45410 45413 1
50837 45409 45416 1
50838 45418 45417 1
50839 45419 45418 1
50840 45420 45419 1
50841 45414 45417 1
50842 45413 45420 1
50843 45422 45421 1
50844 45423 45422 1
50845 45424 45423 1
50846 45419 45421 1
50847 45418 45424 1
50848 45426 45425 1
50849 45427 45426 1
50850 45428 45427 1
50851 45423 45425 1
50852 45422 45428 1
50853 45430 45429 1
50854 45431 45430 1
50855 45421 45431 2
50856 45428 45429 1
50857 45433 45432 1
50858 45434 45433 1
50859 45435 45434 1
50860 45427 45432 1
50861 45426 45435 1
50862 45437 45436 1
50863 45438 45437 1
50864 45424 45436 1
50865 45425 45438 1
50866 45440 45439 2
50867 45441 45440 1
50868 45442 45441 1
50869 45437 45439 1
50870 45436 45442 2
50871 45444 45443 1
50872 45445 45444 1
50873 45446 45445 2
50874 45440 45443 1
50875 45439 45446 1
50876 45448 45447 1
50877 45449 45448 1
50878 45450 45449 1
50879 45446 45447 1
50880 45445 45450 1
50881 45452 45451 1
50882 45438 45452 1
50883 45435 45451 1
50884 45454 45453 1
50885 45455 45454 1
50886 45451 45455 1
50887 45434 45453 1
50888 45457 45456 1
50889 45458 45457 1
50890 45459 45458 1
50891 45454 45456 1
50892 45453 45459 1
50893 45461 45460 1
50894 45462 45461 1
50895 45463 45462 1
50896 45458 45460 1
50897 45457 45463 1
50898 45465 45464 1
50899 45466 45465 1
50900 45467 45466 1
50901 45462 45464 1
50902 45461 45467 1
50903 45469 45468 1
50904 45433 45469 1
50905 45459 45468 1
50906 45471 45470 1
50907 45468 45471 1
50908 45460 45470 1
50909 45473 45472 1
50910 45470 45473 1
50911 45467 45472 1
50912 45475 45474 1
50913 45476 45475 1
50914 45472 45476 1
50915 45466 45474 1
50916 45478 45477 1
50917 45479 45478 1
50918 45480 45479 1
50919 45465 45477 1
50920 45464 45480 1
50921 45482 45481 1
50922 45483 45482 1
50923 45484 45483 1
50924 45479 45481 1
50925 45478 45484 1
50926 45486 45485 1
50927 45487 45486 1
50928 45488 45487 1
50929 45484 45485 1
50930 45483 45488 1
50931 45490 45489 1
50932 45491 45490 1
50933 45473 45491 1
50934 45471 45489 1
50935 45493 45492 1
50936 45494 45493 1
50937 45495 45494 1
50938 45490 45492 1
50939 45489 45495 1
50940 45497 45496 1
50941 45498 45497 1
50942 45499 45498 1
50943 45494 45496 1
50944 45493 45499 1
50945 45501 45500 1
50946 45491 45501 1
50947 45476 45500 1
50948 45503 45502 1
50949 45504 45503 1
50950 45500 45504 1
50951 45475 45502 1
50952 45506 45505 1
50953 45507 45506 1
50954 45474 45507 1
50955 45502 45505 1
50956 45509 45508 1
50957 45510 45509 1
50958 45503 45508 1
50959 45505 45510 1
50960 45512 45511 1
50961 45513 45512 1
50962 45506 45511 1
50963 45510 45513 1
50964 45515 45514 1
50965 45516 45515 1
50966 45517 45516 1
50967 45512 45514 1
50968 45511 45517 1
50969 45519 45518 1
50970 45520 45519 1
50971 45509 45520 1
50972 45513 45518 1
50973 45514 45521 1
50974 45518 45522 1
50975 45521 45522 1
50976 45448 45523 1
50977 45523 45524 1
50978 45523 45525 1
50979 45480 45526 1
50980 45528 45527 1
50981 45529 45528 1
50982 45530 45529 1
50983 45520 45527 1
50984 45519 45530 1
50985 45532 45531 1
50986 45533 45532 1
50987 45534 45533 1
50988 45530 45531 1
50989 45529 45534 1
50990 45536 45535 1
50991 45537 45536 1
50992 45538 45537 1
50993 45533 45535 1
50994 45532 45538 1
50995 45540 45539 1
50996 45541 45540 1
50997 45531 45541 1
50998 45538 45539 1
50999 45543 45542 1
51000 45544 45543 1
51001 45537 45544 1
51002 45539 45542 1
51003 45546 45545 1
51004 45540 45546 1
51005 45522 45541 1
51006 45521 45545 1
51007 45548 45547 1
51008 45546 45548 1
51009 45542 45547 1
51010 45550 45549 1
51011 45551 45550 1
51012 45552 45551 1
51013 45548 45549 1
51014 45547 45552 1
51015 45552 45553 2
51016 45407 45554 1
51017 45407 45555 1
51018 45408 45556 1
51019 45408 45557 1
51020 45409 45558 1
51021 45410 45559 1
51022 45411 45560 1
51023 45411 45561 1
51024 45413 45562 1
51025 45414 45563 1
51026 45415 45564 1
51027 45415 45565 1
51028 45416 45566 1
51029 45416 45567 1
51030 45418 45568 1
51031 45419 45569 1
51032 45420 45570 1
51033 45420 45571 1
51034 45424 45572 1
51035 45429 45573 1
51036 45429 45574 1
51037 45430 45575 1
51038 45430 45576 1
51039 45431 45577 1
51040 45441 45579 1
51041 45441 45580 1
51042 45442 45581 1
51043 45443 45582 1
51044 45443 45583 1
51045 45444 45584 1
51046 45444 45585 1
51047 45447 45586 1
51048 45447 45587 1
51049 45448 45588 1
51050 45449 45589 1
51051 45449 45590 1
51052 45450 45591 1
51053 45450 45592 1
51054 45452 45593 1
51055 45456 45594 1
51056 45463 45595 1
51057 45469 45596 1
51058 45478 45597 1
51059 45479 45598 1
51060 45480 45599 1
51061 45481 45600 1
51062 45481 45601 1
51063 45482 45602 1
51064 45482 45603 1
51065 45483 45604 1
51066 45484 45605 1
51067 45485 45606 1
51068 45485 45607 1
51069 45486 45608 1
51070 45486 45609 1
51071 45487 45610 1
51072 45487 45611 1
51073 45488 45612 1
51074 45493 45613 1
51075 45494 45614 1
51076 45496 45615 1
51077 45496 45616 1
51078 45497 45617 1
51079 45497 45618 1
51080 45498 45619 1
51081 45498 45620 1
51082 45499 45621 1
51083 45499 45622 1
51084 45501 45623 1
51085 45504 45624 1
51086 45507 45625 1
51087 45511 45626 1
51088 45512 45627 1
51089 45514 45628 1
51090 45515 45629 1
51091 45515 45630 1
51092 45516 45631 1
51093 45516 45632 1
51094 45517 45633 1
51095 45517 45634 1
51096 45523 45635 1
51097 45524 45636 1
51098 45524 45637 1
51099 45524 45638 1
51100 45525 45639 1
51101 45525 45640 1
51102 45525 45641 1
51103 45526 45642 1
51104 45527 45643 1
51105 45528 45644 1
51106 45534 45645 1
51107 45535 45646 1
51108 45536 45647 1
51109 45543 45648 1
51110 45544 45649 1
51111 45545 45650 1
51112 45549 45651 1
51113 45549 45652 1
51114 45550 45653 1
51115 45550 45654 1
51116 45551 45655 1
51117 45551 45656 1
51118 45437 45578 1
51119 45659 45658 1
51120 45660 45659 1
51121 45661 45660 1
51122 45662 45661 1
51123 45657 45658 1
51124 45657 45662 1
51125 45664 45663 1
51126 45665 45664 1
51127 45666 45665 1
51128 45660 45663 1
51129 45659 45666 1
51130 45668 45667 1
51131 45669 45668 1
51132 45670 45669 1
51133 45664 45667 1
51134 45663 45670 1
51135 45672 45671 1
51136 45673 45672 1
51137 45674 45673 1
51138 45669 45671 1
51139 45668 45674 1
51140 45676 45675 1
51141 45677 45676 1
51142 45678 45677 1
51143 45673 45675 1
51144 45672 45678 1
51145 45680 45679 1
51146 45681 45680 1
51147 45671 45681 2
51148 45678 45679 1
51149 45683 45682 1
51150 45684 45683 1
51151 45685 45684 1
51152 45677 45682 1
51153 45676 45685 1
51154 45687 45686 1
51155 45688 45687 1
51156 45674 45686 1
51157 45675 45688 1
51158 45690 45689 2
51159 45691 45690 1
51160 45692 45691 1
51161 45687 45689 1
51162 45686 45692 2
51163 45694 45693 1
51164 45695 45694 1
51165 45696 45695 2
51166 45690 45693 1
51167 45689 45696 1
51168 45698 45697 1
51169 45699 45698 1
51170 45700 45699 1
51171 45696 45697 1
51172 45695 45700 1
51173 45702 45701 1
51174 45688 45702 1
51175 45685 45701 1
51176 45704 45703 1
51177 45705 45704 1
51178 45701 45705 1
51179 45684 45703 1
51180 45707 45706 1
51181 45708 45707 1
51182 45709 45708 1
51183 45704 45706 1
51184 45703 45709 1
51185 45711 45710 1
51186 45712 45711 1
51187 45713 45712 1
51188 45708 45710 1
51189 45707 45713 1
51190 45715 45714 1
51191 45716 45715 1
51192 45717 45716 1
51193 45712 45714 1
51194 45711 45717 1
51195 45719 45718 1
51196 45683 45719 1
51197 45709 45718 1
51198 45721 45720 1
51199 45718 45721 1
51200 45710 45720 1
51201 45723 45722 1
51202 45720 45723 1
51203 45717 45722 1
51204 45725 45724 1
51205 45726 45725 1
51206 45722 45726 1
51207 45716 45724 1
51208 45728 45727 1
51209 45729 45728 1
51210 45730 45729 1
51211 45715 45727 1
51212 45714 45730 1
51213 45732 45731 1
51214 45733 45732 1
51215 45734 45733 1
51216 45729 45731 1
51217 45728 45734 1
51218 45736 45735 1
51219 45737 45736 1
51220 45738 45737 1
51221 45734 45735 1
51222 45733 45738 1
51223 45740 45739 1
51224 45741 45740 1
51225 45723 45741 1
51226 45721 45739 1
51227 45743 45742 1
51228 45744 45743 1
51229 45745 45744 1
51230 45740 45742 1
51231 45739 45745 1
51232 45747 45746 1
51233 45748 45747 1
51234 45749 45748 1
51235 45744 45746 1
51236 45743 45749 1
51237 45751 45750 1
51238 45741 45751 1
51239 45726 45750 1
51240 45753 45752 1
51241 45754 45753 1
51242 45750 45754 1
51243 45725 45752 1
51244 45756 45755 1
51245 45757 45756 1
51246 45724 45757 1
51247 45752 45755 1
51248 45759 45758 1
51249 45760 45759 1
51250 45753 45758 1
51251 45755 45760 1
51252 45762 45761 1
51253 45763 45762 1
51254 45756 45761 1
51255 45760 45763 1
51256 45765 45764 1
51257 45766 45765 1
51258 45767 45766 1
51259 45762 45764 1
51260 45761 45767 1
51261 45769 45768 1
51262 45770 45769 1
51263 45759 45770 1
51264 45763 45768 1
51265 45764 45771 1
51266 45768 45772 1
51267 45771 45772 1
51268 45698 45773 1
51269 45773 45774 1
51270 45773 45775 1
51271 45730 45776 1
51272 45778 45777 1
51273 45779 45778 1
51274 45780 45779 1
51275 45770 45777 1
51276 45769 45780 1
51277 45782 45781 1
51278 45783 45782 1
51279 45784 45783 1
51280 45780 45781 1
51281 45779 45784 1
51282 45786 45785 1
51283 45787 45786 1
51284 45788 45787 1
51285 45783 45785 1
51286 45782 45788 1
51287 45790 45789 1
51288 45791 45790 1
51289 45781 45791 1
51290 45788 45789 1
51291 45793 45792 1
51292 45794 45793 1
51293 45787 45794 1
51294 45789 45792 1
51295 45796 45795 1
51296 45790 45796 1
51297 45772 45791 1
51298 45771 45795 1
51299 45798 45797 1
51300 45796 45798 1
51301 45792 45797 1
51302 45800 45799 1
51303 45801 45800 1
51304 45802 45801 1
51305 45798 45799 1
51306 45797 45802 1
51307 45802 45803 2
51308 45657 45804 1
51309 45657 45805 1
51310 45658 45806 1
51311 45658 45807 1
51312 45659 45808 1
51313 45660 45809 1
51314 45661 45810 1
51315 45661 45811 1
51316 45663 45812 1
51317 45664 45813 1
51318 45665 45814 1
51319 45665 45815 1
51320 45666 45816 1
51321 45666 45817 1
51322 45668 45818 1
51323 45669 45819 1
51324 45670 45820 1
51325 45670 45821 1
51326 45674 45822 1
51327 45679 45823 1
51328 45679 45824 1
51329 45680 45825 1
51330 45680 45826 1
51331 45681 45827 1
51332 45691 45829 1
51333 45691 45830 1
51334 45692 45831 1
51335 45693 45832 1
51336 45693 45833 1
51337 45694 45834 1
51338 45694 45835 1
51339 45697 45836 1
51340 45697 45837 1
51341 45698 45838 1
51342 45699 45839 1
51343 45699 45840 1
51344 45700 45841 1
51345 45700 45842 1
51346 45702 45843 1
51347 45706 45844 1
51348 45713 45845 1
51349 45719 45846 1
51350 45728 45847 1
51351 45729 45848 1
51352 45730 45849 1
51353 45731 45850 1
51354 45731 45851 1
51355 45732 45852 1
51356 45732 45853 1
51357 45733 45854 1
51358 45734 45855 1
51359 45735 45856 1
51360 45735 45857 1
51361 45736 45858 1
51362 45736 45859 1
51363 45737 45860 1
51364 45737 45861 1
51365 45738 45862 1
51366 45743 45863 1
51367 45744 45864 1
51368 45746 45865 1
51369 45746 45866 1
51370 45747 45867 1
51371 45747 45868 1
51372 45748 45869 1
51373 45748 45870 1
51374 45749 45871 1
51375 45749 45872 1
51376 45751 45873 1
51377 45754 45874 1
51378 45757 45875 1
51379 45761 45876 1
51380 45762 45877 1
51381 45764 45878 1
51382 45765 45879 1
51383 45765 45880 1
51384 45766 45881 1
51385 45766 45882 1
51386 45767 45883 1
51387 45767 45884 1
51388 45773 45885 1
51389 45774 45886 1
51390 45774 45887 1
51391 45774 45888 1
51392 45775 45889 1
51393 45775 45890 1
51394 45775 45891 1
51395 45776 45892 1
51396 45777 45893 1
51397 45778 45894 1
51398 45784 45895 1
51399 45785 45896 1
51400 45786 45897 1
51401 45793 45898 1
51402 45794 45899 1
51403 45795 45900 1
51404 45799 45901 1
51405 45799 45902 1
51406 45800 45903 1
51407 45800 45904 1
51408 45801 45905 1
51409 45801 45906 1
51410 45687 45828 1
51411 45909 45908 1
51412 45910 45909 1
51413 45911 45910 1
51414 45912 45911 1
51415 45907 45908 1
51416 45907 45912 1
51417 45914 45913 1
51418 45915 45914 1
51419 45916 45915 1
51420 45910 45913 1
51421 45909 45916 1
51422 45918 45917 1
51423 45919 45918 1
51424 45920 45919 1
51425 45914 45917 1
51426 45913 45920 1
51427 45922 45921 1
51428 45923 45922 1
51429 45924 45923 1
51430 45919 45921 1
51431 45918 45924 1
51432 45926 45925 1
51433 45927 45926 1
51434 45928 45927 1
51435 45923 45925 1
51436 45922 45928 1
51437 45930 45929 1
51438 45931 45930 1
51439 45921 45931 2
51440 45928 45929 1
51441 45933 45932 1
51442 45934 45933 1
51443 45935 45934 1
51444 45927 45932 1
51445 45926 45935 1
51446 45937 45936 1
51447 45938 45937 1
51448 45924 45936 1
51449 45925 45938 1
51450 45940 45939 2
51451 45941 45940 1
51452 45942 45941 1
51453 45937 45939 1
51454 45936 45942 2
51455 45944 45943 1
51456 45945 45944 1
51457 45946 45945 2
51458 45940 45943 1
51459 45939 45946 1
51460 45948 45947 1
51461 45949 45948 1
51462 45950 45949 1
51463 45946 45947 1
51464 45945 45950 1
51465 45952 45951 1
51466 45938 45952 1
51467 45935 45951 1
51468 45954 45953 1
51469 45955 45954 1
51470 45951 45955 1
51471 45934 45953 1
51472 45957 45956 1
51473 45958 45957 1
51474 45959 45958 1
51475 45954 45956 1
51476 45953 45959 1
51477 45961 45960 1
51478 45962 45961 1
51479 45963 45962 1
51480 45958 45960 1
51481 45957 45963 1
51482 45965 45964 1
51483 45966 45965 1
51484 45967 45966 1
51485 45962 45964 1
51486 45961 45967 1
51487 45969 45968 1
51488 45933 45969 1
51489 45959 45968 1
51490 45971 45970 1
51491 45968 45971 1
51492 45960 45970 1
51493 45973 45972 1
51494 45970 45973 1
51495 45967 45972 1
51496 45975 45974 1
51497 45976 45975 1
51498 45972 45976 1
51499 45966 45974 1
51500 45978 45977 1
51501 45979 45978 1
51502 45980 45979 1
51503 45965 45977 1
51504 45964 45980 1
51505 45982 45981 1
51506 45983 45982 1
51507 45984 45983 1
51508 45979 45981 1
51509 45978 45984 1
51510 45986 45985 1
51511 45987 45986 1
51512 45988 45987 1
51513 45984 45985 1
51514 45983 45988 1
51515 45990 45989 1
51516 45991 45990 1
51517 45973 45991 1
51518 45971 45989 1
51519 45993 45992 1
51520 45994 45993 1
51521 45995 45994 1
51522 45990 45992 1
51523 45989 45995 1
51524 45997 45996 1
51525 45998 45997 1
51526 45999 45998 1
51527 45994 45996 1
51528 45993 45999 1
51529 46001 46000 1
51530 45991 46001 1
51531 45976 46000 1
51532 46003 46002 1
51533 46004 46003 1
51534 46000 46004 1
51535 45975 46002 1
51536 46006 46005 1
51537 46007 46006 1
51538 45974 46007 1
51539 46002 46005 1
51540 46009 46008 1
51541 46010 46009 1
51542 46003 46008 1
51543 46005 46010 1
51544 46012 46011 1
51545 46013 46012 1
51546 46006 46011 1
51547 46010 46013 1
51548 46015 46014 1
51549 46016 46015 1
51550 46017 46016 1
51551 46012 46014 1
51552 46011 46017 1
51553 46019 46018 1
51554 46020 46019 1
51555 46009 46020 1
51556 46013 46018 1
51557 46014 46021 1
51558 46018 46022 1
51559 46021 46022 1
51560 45948 46023 1
51561 46023 46024 1
51562 46023 46025 1
51563 45980 46026 1
51564 46028 46027 1
51565 46029 46028 1
51566 46030 46029 1
51567 46020 46027 1
51568 46019 46030 1
51569 46032 46031 1
51570 46033 46032 1
51571 46034 46033 1
51572 46030 46031 1
51573 46029 46034 1
51574 46036 46035 1
51575 46037 46036 1
51576 46038 46037 1
51577 46033 46035 1
51578 46032 46038 1
51579 46040 46039 1
51580 46041 46040 1
51581 46031 46041 1
51582 46038 46039 1
51583 46043 46042 1
51584 46044 46043 1
51585 46037 46044 1
51586 46039 46042 1
51587 46046 46045 1
51588 46040 46046 1
51589 46022 46041 1
51590 46021 46045 1
51591 46048 46047 1
51592 46046 46048 1
51593 46042 46047 1
51594 46050 46049 1
51595 46051 46050 1
51596 46052 46051 1
51597 46048 46049 1
51598 46047 46052 1
51599 46052 46053 2
51600 45907 46054 1
51601 45907 46055 1
51602 45908 46056 1
51603 45908 46057 1
51604 45909 46058 1
51605 45910 46059 1
51606 45911 46060 1
51607 45911 46061 1
51608 45913 46062 1
51609 45914 46063 1
51610 45915 46064 1
51611 45915 46065 1
51612 45916 46066 1
51613 45916 46067 1
51614 45918 46068 1
51615 45919 46069 1
51616 45920 46070 1
51617 45920 46071 1
51618 45924 46072 1
51619 45929 46073 1
51620 45929 46074 1
51621 45930 46075 1
51622 45930 46076 1
51623 45931 46077 1
51624 45941 46079 1
51625 45941 46080 1
51626 45942 46081 1
51627 45943 46082 1
51628 45943 46083 1
51629 45944 46084 1
51630 45944 46085 1
51631 45947 46086 1
51632 45947 46087 1
51633 45948 46088 1
51634 45949 46089 1
51635 45949 46090 1
51636 45950 46091 1
51637 45950 46092 1
51638 45952 46093 1
51639 45956 46094 1
51640 45963 46095 1
51641 45969 46096 1
51642 45978 46097 1
51643 45979 46098 1
51644 45980 46099 1
51645 45981 46100 1
51646 45981 46101 1
51647 45982 46102 1
51648 45982 46103 1
51649 45983 46104 1
51650 45984 46105 1
51651 45985 46106 1
51652 45985 46107 1
51653 45986 46108 1
51654 45986 46109 1
51655 45987 46110 1
51656 45987 46111 1
51657 45988 46112 1
51658 45993 46113 1
51659 45994 46114 1
51660 45996 46115 1
51661 45996 46116 1
51662 45997 46117 1
51663 45997 46118 1
51664 45998 46119 1
51665 45998 46120 1
51666 45999 46121 1
51667 45999 46122 1
51668 46001 46123 1
51669 46004 46124 1
51670 46007 46125 1
51671 46011 46126 1
51672 46012 46127 1
51673 46014 46128 1
51674 46015 46129 1
51675 46015 46130 1
51676 46016 46131 1
51677 46016 46132 1
51678 46017 46133 1
51679 46017 46134 1
51680 46023 46135 1
51681 46024 46136 1
51682 46024 46137 1
51683 46024 46138 1
51684 46025 46139 1
51685 46025 46140 1
51686 46025 46141 1
51687 46026 46142 1
51688 46027 46143 1
51689 46028 46144 1
51690 46034 46145 1
51691 46035 46146 1
51692 46036 46147 1
51693 46043 46148 1
51694 46044 46149 1
51695 46045 46150 1
51696 46049 46151 1
51697 46049 46152 1
51698 46050 46153 1
51699 46050 46154 1
51700 46051 46155 1
51701 46051 46156 1
51702 45937 46078 1
51703 46159 46158 1
51704 46160 46159 1
51705 46161 46160 1
51706 46162 46161 1
51707 46157 46158 1
51708 46157 46162 1
51709 46164 46163 1
51710 46165 46164 1
51711 46166 46165 1
51712 46160 46163 1
51713 46159 46166 1
51714 46168 46167 1
51715 46169 46168 1
51716 46170 46169 1
51717 46164 46167 1
51718 46163 46170 1
51719 46172 46171 1
51720 46173 46172 1
51721 46174 46173 1
51722 46169 46171 1
51723 46168 46174 1
51724 46176 46175 1
51725 46177 46176 1
51726 46178 46177 1
51727 46173 46175 1
51728 46172 46178 1
51729 46180 46179 1
51730 46181 46180 1
51731 46171 46181 2
51732 46178 46179 1
51733 46183 46182 1
51734 46184 46183 1
51735 46185 46184 1
51736 46177 46182 1
51737 46176 46185 1
51738 46187 46186 1
51739 46188 46187 1
51740 46174 46186 1
51741 46175 46188 1
51742 46190 46189 2
51743 46191 46190 1
51744 46192 46191 1
51745 46187 46189 1
51746 46186 46192 2
51747 46194 46193 1
51748 46195 46194 1
51749 46196 46195 2
51750 46190 46193 1
51751 46189 46196 1
51752 46198 46197 1
51753 46199 46198 1
51754 46200 46199 1
51755 46196 46197 1
51756 46195 46200 1
51757 46202 46201 1
51758 46188 46202 1
51759 46185 46201 1
51760 46204 46203 1
51761 46205 46204 1
51762 46201 46205 1
51763 46184 46203 1
51764 46207 46206 1
51765 46208 46207 1
51766 46209 46208 1
51767 46204 46206 1
51768 46203 46209 1
51769 46211 46210 1
51770 46212 46211 1
51771 46213 46212 1
51772 46208 46210 1
51773 46207 46213 1
51774 46215 46214 1
51775 46216 46215 1
51776 46217 46216 1
51777 46212 46214 1
51778 46211 46217 1
51779 46219 46218 1
51780 46183 46219 1
51781 46209 46218 1
51782 46221 46220 1
51783 46218 46221 1
51784 46210 46220 1
51785 46223 46222 1
51786 46220 46223 1
51787 46217 46222 1
51788 46225 46224 1
51789 46226 46225 1
51790 46222 46226 1
51791 46216 46224 1
51792 46228 46227 1
51793 46229 46228 1
51794 46230 46229 1
51795 46215 46227 1
51796 46214 46230 1
51797 46232 46231 1
51798 46233 46232 1
51799 46234 46233 1
51800 46229 46231 1
51801 46228 46234 1
51802 46236 46235 1
51803 46237 46236 1
51804 46238 46237 1
51805 46234 46235 1
51806 46233 46238 1
51807 46240 46239 1
51808 46241 46240 1
51809 46223 46241 1
51810 46221 46239 1
51811 46243 46242 1
51812 46244 46243 1
51813 46245 46244 1
51814 46240 46242 1
51815 46239 46245 1
51816 46247 46246 1
51817 46248 46247 1
51818 46249 46248 1
51819 46244 46246 1
51820 46243 46249 1
51821 46251 46250 1
51822 46241 46251 1
51823 46226 46250 1
51824 46253 46252 1
51825 46254 46253 1
51826 46250 46254 1
51827 46225 46252 1
51828 46256 46255 1
51829 46257 46256 1
51830 46224 46257 1
51831 46252 46255 1
51832 46259 46258 1
51833 46260 46259 1
51834 46253 46258 1
51835 46255 46260 1
51836 46262 46261 1
51837 46263 46262 1
51838 46256 46261 1
51839 46260 46263 1
51840 46265 46264 1
51841 46266 46265 1
51842 46267 46266 1
51843 46262 46264 1
51844 46261 46267 1
51845 46269 46268 1
51846 46270 46269 1
51847 46259 46270 1
51848 46263 46268 1
51849 46264 46271 1
51850 46268 46272 1
51851 46271 46272 1
51852 46198 46273 1
51853 46273 46274 1
51854 46273 46275 1
51855 46230 46276 1
51856 46278 46277 1
51857 46279 46278 1
51858 46280 46279 1
51859 46270 46277 1
51860 46269 46280 1
51861 46282 46281 1
51862 46283 46282 1
51863 46284 46283 1
51864 46280 46281 1
51865 46279 46284 1
51866 46286 46285 1
51867 46287 46286 1
51868 46288 46287 1
51869 46283 46285 1
51870 46282 46288 1
51871 46290 46289 1
51872 46291 46290 1
51873 46281 46291 1
51874 46288 46289 1
51875 46293 46292 1
51876 46294 46293 1
51877 46287 46294 1
51878 46289 46292 1
51879 46296 46295 1
51880 46290 46296 1
51881 46272 46291 1
51882 46271 46295 1
51883 46298 46297 1
51884 46296 46298 1
51885 46292 46297 1
51886 46300 46299 1
51887 46301 46300 1
51888 46302 46301 1
51889 46298 46299 1
51890 46297 46302 1
51891 46302 46303 2
51892 46157 46304 1
51893 46157 46305 1
51894 46158 46306 1
51895 46158 46307 1
51896 46159 46308 1
51897 46160 46309 1
51898 46161 46310 1
51899 46161 46311 1
51900 46163 46312 1
51901 46164 46313 1
51902 46165 46314 1
51903 46165 46315 1
51904 46166 46316 1
51905 46166 46317 1
51906 46168 46318 1
51907 46169 46319 1
51908 46170 46320 1
51909 46170 46321 1
51910 46174 46322 1
51911 46179 46323 1
51912 46179 46324 1
51913 46180 46325 1
51914 46180 46326 1
51915 46181 46327 1
51916 46191 46329 1
51917 46191 46330 1
51918 46192 46331 1
51919 46193 46332 1
51920 46193 46333 1
51921 46194 46334 1
51922 46194 46335 1
51923 46197 46336 1
51924 46197 46337 1
51925 46198 46338 1
51926 46199 46339 1
51927 46199 46340 1
51928 46200 46341 1
51929 46200 46342 1
51930 46202 46343 1
51931 46206 46344 1
51932 46213 46345 1
51933 46219 46346 1
51934 46228 46347 1
51935 46229 46348 1
51936 46230 46349 1
51937 46231 46350 1
51938 46231 46351 1
51939 46232 46352 1
51940 46232 46353 1
51941 46233 46354 1
51942 46234 46355 1
51943 46235 46356 1
51944 46235 46357 1
51945 46236 46358 1
51946 46236 46359 1
51947 46237 46360 1
51948 46237 46361 1
51949 46238 46362 1
51950 46243 46363 1
51951 46244 46364 1
51952 46246 46365 1
51953 46246 46366 1
51954 46247 46367 1
51955 46247 46368 1
51956 46248 46369 1
51957 46248 46370 1
51958 46249 46371 1
51959 46249 46372 1
51960 46251 46373 1
51961 46254 46374 1
51962 46257 46375 1
51963 46261 46376 1
51964 46262 46377 1
51965 46264 46378 1
51966 46265 46379 1
51967 46265 46380 1
51968 46266 46381 1
51969 46266 46382 1
51970 46267 46383 1
51971 46267 46384 1
51972 46273 46385 1
51973 46274 46386 1
51974 46274 46387 1
51975 46274 46388 1
51976 46275 46389 1
51977 46275 46390 1
51978 46275 46391 1
51979 46276 46392 1
51980 46277 46393 1
51981 46278 46394 1
51982 46284 46395 1
51983 46285 46396 1
51984 46286 46397 1
51985 46293 46398 1
51986 46294 46399 1
51987 46295 46400 1
51988 46299 46401 1
51989 46299 46402 1
51990 46300 46403 1
51991 46300 46404 1
51992 46301 46405 1
51993 46301 46406 1
51994 46187 46328 1
51995 46409 46408 1
51996 46410 46409 1
51997 46411 46410 1
51998 46412 46411 1
51999 46407 46408 1
52000 46407 46412 1
52001 46414 46413 1
52002 46415 46414 1
52003 46416 46415 1
52004 46410 46413 1
52005 46409 46416 1
52006 46418 46417 1
52007 46419 46418 1
52008 46420 46419 1
52009 46414 46417 1
52010 46413 46420 1
52011 46422 46421 1
52012 46423 46422 1
52013 46424 46423 1
52014 46419 46421 1
52015 46418 46424 1
52016 46426 46425 1
52017 46427 46426 1
52018 46428 46427 1
52019 46423 46425 1
52020 46422 46428 1
52021 46430 46429 1
52022 46431 46430 1
52023 46421 46431 2
52024 46428 46429 1
52025 46433 46432 1
52026 46434 46433 1
52027 46435 46434 1
52028 46427 46432 1
52029 46426 46435 1
52030 46437 46436 1
52031 46438 46437 1
52032 46424 46436 1
52033 46425 46438 1
52034 46440 46439 2
52035 46441 46440 1
52036 46442 46441 1
52037 46437 46439 1
52038 46436 46442 2
52039 46444 46443 1
52040 46445 46444 1
52041 46446 46445 2
52042 46440 46443 1
52043 46439 46446 1
52044 46448 46447 1
52045 46449 46448 1
52046 46450 46449 1
52047 46446 46447 1
52048 46445 46450 1
52049 46452 46451 1
52050 46438 46452 1
52051 46435 46451 1
52052 46454 46453 1
52053 46455 46454 1
52054 46451 46455 1
52055 46434 46453 1
52056 46457 46456 1
52057 46458 46457 1
52058 46459 46458 1
52059 46454 46456 1
52060 46453 46459 1
52061 46461 46460 1
52062 46462 46461 1
52063 46463 46462 1
52064 46458 46460 1
52065 46457 46463 1
52066 46465 46464 1
52067 46466 46465 1
52068 46467 46466 1
52069 46462 46464 1
52070 46461 46467 1
52071 46469 46468 1
52072 46433 46469 1
52073 46459 46468 1
52074 46471 46470 1
52075 46468 46471 1
52076 46460 46470 1
52077 46473 46472 1
52078 46470 46473 1
52079 46467 46472 1
52080 46475 46474 1
52081 46476 46475 1
52082 46472 46476 1
52083 46466 46474 1
52084 46478 46477 1
52085 46479 46478 1
52086 46480 46479 1
52087 46465 46477 1
52088 46464 46480 1
52089 46482 46481 1
52090 46483 46482 1
52091 46484 46483 1
52092 46479 46481 1
52093 46478 46484 1
52094 46486 46485 1
52095 46487 46486 1
52096 46488 46487 1
52097 46484 46485 1
52098 46483 46488 1
52099 46490 46489 1
52100 46491 46490 1
52101 46473 46491 1
52102 46471 46489 1
52103 46493 46492 1
52104 46494 46493 1
52105 46495 46494 1
52106 46490 46492 1
52107 46489 46495 1
52108 46497 46496 1
52109 46498 46497 1
52110 46499 46498 1
52111 46494 46496 1
52112 46493 46499 1
52113 46501 46500 1
52114 46491 46501 1
52115 46476 46500 1
52116 46503 46502 1
52117 46504 46503 1
52118 46500 46504 1
52119 46475 46502 1
52120 46506 46505 1
52121 46507 46506 1
52122 46474 46507 1
52123 46502 46505 1
52124 46509 46508 1
52125 46510 46509 1
52126 46503 46508 1
52127 46505 46510 1
52128 46512 46511 1
52129 46513 46512 1
52130 46506 46511 1
52131 46510 46513 1
52132 46515 46514 1
52133 46516 46515 1
52134 46517 46516 1
52135 46512 46514 1
52136 46511 46517 1
52137 46519 46518 1
52138 46520 46519 1
52139 46509 46520 1
52140 46513 46518 1
52141 46514 46521 1
52142 46518 46522 1
52143 46521 46522 1
52144 46448 46523 1
52145 46523 46524 1
52146 46523 46525 1
52147 46480 46526 1
52148 46528 46527 1
52149 46529 46528 1
52150 46530 46529 1
52151 46520 46527 1
52152 46519 46530 1
52153 46532 46531 1
52154 46533 46532 1
52155 46534 46533 1
52156 46530 46531 1
52157 46529 46534 1
52158 46536 46535 1
52159 46537 46536 1
52160 46538 46537 1
52161 46533 46535 1
52162 46532 46538 1
52163 46540 46539 1
52164 46541 46540 1
52165 46531 46541 1
52166 46538 46539 1
52167 46543 46542 1
52168 46544 46543 1
52169 46537 46544 1
52170 46539 46542 1
52171 46546 46545 1
52172 46540 46546 1
52173 46522 46541 1
52174 46521 46545 1
52175 46548 46547 1
52176 46546 46548 1
52177 46542 46547 1
52178 46550 46549 1
52179 46551 46550 1
52180 46552 46551 1
52181 46548 46549 1
52182 46547 46552 1
52183 46552 46553 2
52184 46407 46554 1
52185 46407 46555 1
52186 46408 46556 1
52187 46408 46557 1
52188 46409 46558 1
52189 46410 46559 1
52190 46411 46560 1
52191 46411 46561 1
52192 46413 46562 1
52193 46414 46563 1
52194 46415 46564 1
52195 46415 46565 1
52196 46416 46566 1
52197 46416 46567 1
52198 46418 46568 1
52199 46419 46569 1
52200 46420 46570 1
52201 46420 46571 1
52202 46424 46572 1
52203 46429 46573 1
52204 46429 46574 1
52205 46430 46575 1
52206 46430 46576 1
52207 46431 46577 1
52208 46441 46579 1
52209 46441 46580 1
52210 46442 46581 1
52211 46443 46582 1
52212 46443 46583 1
52213 46444 46584 1
52214 46444 46585 1
52215 46447 46586 1
52216 46447 46587 1
52217 46448 46588 1
52218 46449 46589 1
52219 46449 46590 1
52220 46450 46591 1
52221 46450 46592 1
52222 46452 46593 1
52223 46456 46594 1
52224 46463 46595 1
52225 46469 46596 1
52226 46478 46597 1
52227 46479 46598 1
52228 46480 46599 1
52229 46481 46600 1
52230 46481 46601 1
52231 46482 46602 1
52232 46482 46603 1
52233 46483 46604 1
52234 46484 46605 1
52235 46485 46606 1
52236 46485 46607 1
52237 46486 46608 1
52238 46486 46609 1
52239 46487 46610 1
52240 46487 46611 1
52241 46488 46612 1
52242 46493 46613 1
52243 46494 46614 1
52244 46496 46615 1
52245 46496 46616 1
52246 46497 46617 1
52247 46497 46618 1
52248 46498 46619 1
52249 46498 46620 1
52250 46499 46621 1
52251 46499 46622 1
52252 46501 46623 1
52253 46504 46624 1
52254 46507 46625 1
52255 46511 46626 1
52256 46512 46627 1
52257 46514 46628 1
52258 46515 46629 1
52259 46515 46630 1
52260 46516 46631 1
52261 46516 46632 1
52262 46517 46633 1
52263 46517 46634 1
52264 46523 46635 1
52265 46524 46636 1
52266 46524 46637 1
52267 46524 46638 1
52268 46525 46639 1
52269 46525 46640 1
52270 46525 46641 1
52271 46526 46642 1
52272 46527 46643 1
52273 46528 46644 1
52274 46534 46645 1
52275 46535 46646 1
52276 46536 46647 1
52277 46543 46648 1
52278 46544 46649 1
52279 46545 46650 1
52280 46549 46651 1
52281 46549 46652 1
52282 46550 46653 1
52283 46550 46654 1
52284 46551 46655 1
52285 46551 46656 1
52286 46437 46578 1
52287 46659 46658 1
52288 46660 46659 1
52289 46661 46660 1
52290 46662 46661 1
52291 46657 46658 1
52292 46657 46662 1
52293 46664 46663 1
52294 46665 46664 1
52295 46666 46665 1
52296 46660 46663 1
52297 46659 46666 1
52298 46668 46667 1
52299 46669 46668 1
52300 46670 46669 1
52301 46664 46667 1
52302 46663 46670 1
52303 46672 46671 1
52304 46673 46672 1
52305 46674 46673 1
52306 46669 46671 1
52307 46668 46674 1
52308 46676 46675 1
52309 46677 46676 1
52310 46678 46677 1
52311 46673 46675 1
52312 46672 46678 1
52313 46680 46679 1
52314 46681 46680 1
52315 46671 46681 2
52316 46678 46679 1
52317 46683 46682 1
52318 46684 46683 1
52319 46685 46684 1
52320 46677 46682 1
52321 46676 46685 1
52322 46687 46686 1
52323 46688 46687 1
52324 46674 46686 1
52325 46675 46688 1
52326 46690 46689 2
52327 46691 46690 1
52328 46692 46691 1
52329 46687 46689 1
52330 46686 46692 2
52331 46694 46693 1
52332 46695 46694 1
52333 46696 46695 2
52334 46690 46693 1
52335 46689 46696 1
52336 46698 46697 1
52337 46699 46698 1
52338 46700 46699 1
52339 46696 46697 1
52340 46695 46700 1
52341 46702 46701 1
52342 46688 46702 1
52343 46685 46701 1
52344 46704 46703 1
52345 46705 46704 1
52346 46701 46705 1
52347 46684 46703 1
52348 46707 46706 1
52349 46708 46707 1
52350 46709 46708 1
52351 46704 46706 1
52352 46703 46709 1
52353 46711 46710 1
52354 46712 46711 1
52355 46713 46712 1
52356 46708 46710 1
52357 46707 46713 1
52358 46715 46714 1
52359 46716 46715 1
52360 46717 46716 1
52361 46712 46714 1
52362 46711 46717 1
52363 46719 46718 1
52364 46683 46719 1
52365 46709 46718 1
52366 46721 46720 1
52367 46718 46721 1
52368 46710 46720 1
52369 46723 46722 1
52370 46720 46723 1
52371 46717 46722 1
52372 46725 46724 1
52373 46726 46725 1
52374 46722 46726 1
52375 46716 46724 1
52376 46728 46727 1
52377 46729 46728 1
52378 46730 46729 1
52379 46715 46727 1
52380 46714 46730 1
52381 46732 46731 1
52382 46733 46732 1
52383 46734 46733 1
52384 46729 46731 1
52385 46728 46734 1
52386 46736 46735 1
52387 46737 46736 1
52388 46738 46737 1
52389 46734 46735 1
52390 46733 46738 1
52391 46740 46739 1
52392 46741 46740 1
52393 46723 46741 1
52394 46721 46739 1
52395 46743 46742 1
52396 46744 46743 1
52397 46745 46744 1
52398 46740 46742 1
52399 46739 46745 1
52400 46747 46746 1
52401 46748 46747 1
52402 46749 46748 1
52403 46744 46746 1
52404 46743 46749 1
52405 46751 46750 1
52406 46741 46751 1
52407 46726 46750 1
52408 46753 46752 1
52409 46754 46753 1
52410 46750 46754 1
52411 46725 46752 1
52412 46756 46755 1
52413 46757 46756 1
52414 46724 46757 1
52415 46752 46755 1
52416 46759 46758 1
52417 46760 46759 1
52418 46753 46758 1
52419 46755 46760 1
52420 46762 46761 1
52421 46763 46762 1
52422 46756 46761 1
52423 46760 46763 1
52424 46765 46764 1
52425 46766 46765 1
52426 46767 46766 1
52427 46762 46764 1
52428 46761 46767 1
52429 46769 46768 1
52430 46770 46769 1
52431 46759 46770 1
52432 46763 46768 1
52433 46764 46771 1
52434 46768 46772 1
52435 46771 46772 1
52436 46698 46773 1
52437 46773 46774 1
52438 46773 46775 1
52439 46730 46776 1
52440 46778 46777 1
52441 46779 46778 1
52442 46780 46779 1
52443 46770 46777 1
52444 46769 46780 1
52445 46782 46781 1
52446 46783 46782 1
52447 46784 46783 1
52448 46780 46781 1
52449 46779 46784 1
52450 46786 46785 1
52451 46787 46786 1
52452 46788 46787 1
52453 46783 46785 1
52454 46782 46788 1
52455 46790 46789 1
52456 46791 46790 1
52457 46781 46791 1
52458 46788 46789 1
52459 46793 46792 1
52460 46794 46793 1
52461 46787 46794 1
52462 46789 46792 1
52463 46796 46795 1
52464 46790 46796 1
52465 46772 46791 1
52466 46771 46795 1
52467 46798 46797 1
52468 46796 46798 1
52469 46792 46797 1
52470 46800 46799 1
52471 46801 46800 1
52472 46802 46801 1
52473 46798 46799 1
52474 46797 46802 1
52475 46802 46803 2
52476 46657 46804 1
52477 46657 46805 1
52478 46658 46806 1
52479 46658 46807 1
52480 46659 46808 1
52481 46660 46809 1
52482 46661 46810 1
52483 46661 46811 1
52484 46663 46812 1
52485 46664 46813 1
52486 46665 46814 1
52487 46665 46815 1
52488 46666 46816 1
52489 46666 46817 1
52490 46668 46818 1
52491 46669 46819 1
52492 46670 46820 1
52493 46670 46821 1
52494 46674 46822 1
52495 46679 46823 1
52496 46679 46824 1
52497 46680 46825 1
52498 46680 46826 1
52499 46681 46827 1
52500 46691 46829 1
52501 46691 46830 1
52502 46692 46831 1
52503 46693 46832 1
52504 46693 46833 1
52505 46694 46834 1
52506 46694 46835 1
52507 46697 46836 1
52508 46697 46837 1
52509 46698 46838 1
52510 46699 46839 1
52511 46699 46840 1
52512 46700 46841 1
52513 46700 46842 1
52514 46702 46843 1
52515 46706 46844 1
52516 46713 46845 1
52517 46719 46846 1
52518 46728 46847 1
52519 46729 46848 1
52520 46730 46849 1
52521 46731 46850 1
52522 46731 46851 1
52523 46732 46852 1
52524 46732 46853 1
52525 46733 46854 1
52526 46734 46855 1
52527 46735 46856 1
52528 46735 46857 1
52529 46736 46858 1
52530 46736 46859 1
52531 46737 46860 1
52532 46737 46861 1
52533 46738 46862 1
52534 46743 46863 1
52535 46744 46864 1
52536 46746 46865 1
52537 46746 46866 1
52538 46747 46867 1
52539 46747 46868 1
52540 46748 46869 1
52541 46748 46870 1
52542 46749 46871 1
52543 46749 46872 1
52544 46751 46873 1
52545 46754 46874 1
52546 46757 46875 1
52547 46761 46876 1
52548 46762 46877 1
52549 46764 46878 1
52550 46765 46879 1
52551 46765 46880 1
52552 46766 46881 1
52553 46766 46882 1
52554 46767 46883 1
52555 46767 46884 1
52556 46773 46885 1
52557 46774 46886 1
52558 46774 46887 1
52559 46774 46888 1
52560 46775 46889 1
52561 46775 46890 1
52562 46775 46891 1
52563 46776 46892 1
52564 46777 46893 1
52565 46778 46894 1
52566 46784 46895 1
52567 46785 46896 1
52568 46786 46897 1
52569 46793 46898 1
52570 46794 46899 1
52571 46795 46900 1
52572 46799 46901 1
52573 46799 46902 1
52574 46800 46903 1
52575 46800 46904 1
52576 46801 46905 1
52577 46801 46906 1
52578 46687 46828 1
52579 46909 46908 1
52580 46910 46909 1
52581 46911 46910 1
52582 46912 46911 1
52583 46907 46908 1
52584 46907 46912 1
52585 46914 46913 1
52586 46915 46914 1
52587 46916 46915 1
52588 46910 46913 1
52589 46909 46916 1
52590 46918 46917 1
52591 46919 46918 1
52592 46920 46919 1
52593 46914 46917 1
52594 46913 46920 1
52595 46922 46921 1
52596 46923 46922 1
52597 46924 46923 1
52598 46919 46921 1
52599 46918 46924 1
52600 46926 46925 1
52601 46927 46926 1
52602 46928 46927 1
52603 46923 46925 1
52604 46922 46928 1
52605 46930 46929 1
52606 46931 46930 1
52607 46921 46931 2
52608 46928 46929 1
52609 46933 46932 1
52610 46934 46933 1
52611 46935 46934 1
52612 46927 46932 1
52613 46926 46935 1
52614 46937 46936 1
52615 46938 46937 1
52616 46924 46936 1
52617 46925 46938 1
52618 46940 46939 2
52619 46941 46940 1
52620 46942 46941 1
52621 46937 46939 1
52622 46936 46942 2
52623 46944 46943 1
52624 46945 46944 1
52625 46946 46945 2
52626 46940 46943 1
52627 46939 46946 1
52628 46948 46947 1
52629 46949 46948 1
52630 46950 46949 1
52631 46946 46947 1
52632 46945 46950 1
52633 46952 46951 1
52634 46938 46952 1
52635 46935 46951 1
52636 46954 46953 1
52637 46955 46954 1
52638 46951 46955 1
52639 46934 46953 1
52640 46957 46956 1
52641 46958 46957 1
52642 46959 46958 1
52643 46954 46956 1
52644 46953 46959 1
52645 46961 46960 1
52646 46962 46961 1
52647 46963 46962 1
52648 46958 46960 1
52649 46957 46963 1
52650 46965 46964 1
52651 46966 46965 1
52652 46967 46966 1
52653 46962 46964 1
52654 46961 46967 1
52655 46969 46968 1
52656 46933 46969 1
52657 46959 46968 1
52658 46971 46970 1
52659 46968 46971 1
52660 46960 46970 1
52661 46973 46972 1
52662 46970 46973 1
52663 46967 46972 1
52664 46975 46974 1
52665 46976 46975 1
52666 46972 46976 1
52667 46966 46974 1
52668 46978 46977 1
52669 46979 46978 1
52670 46980 46979 1
52671 46965 46977 1
52672 46964 46980 1
52673 46982 46981 1
52674 46983 46982 1
52675 46984 46983 1
52676 46979 46981 1
52677 46978 46984 1
52678 46986 46985 1
52679 46987 46986 1
52680 46988 46987 1
52681 46984 46985 1
52682 46983 46988 1
52683 46990 46989 1
52684 46991 46990 1
52685 46973 46991 1
52686 46971 46989 1
52687 46993 46992 1
52688 46994 46993 1
52689 46995 46994 1
52690 46990 46992 1
52691 46989 46995 1
52692 46997 46996 1
52693 46998 46997 1
52694 46999 46998 1
52695 46994 46996 1
52696 46993 46999 1
52697 47001 47000 1
52698 46991 47001 1
52699 46976 47000 1
52700 47003 47002 1
52701 47004 47003 1
52702 47000 47004 1
52703 46975 47002 1
52704 47006 47005 1
52705 47007 47006 1
52706 46974 47007 1
52707 47002 47005 1
52708 47009 47008 1
52709 47010 47009 1
52710 47003 47008 1
52711 47005 47010 1
52712 47012 47011 1
52713 47013 47012 1
52714 47006 47011 1
52715 47010 47013 1
52716 47015 47014 1
52717 47016 47015 1
52718 47017 47016 1
52719 47012 47014 1
52720 47011 47017 1
52721 47019 47018 1
52722 47020 47019 1
52723 47009 47020 1
52724 47013 47018 1
52725 47014 47021 1
52726 47018 47022 1
52727 47021 47022 1
52728 46948 47023 1
52729 47023 47024 1
52730 47023 47025 1
52731 46980 47026 1
52732 47028 47027 1
52733 47029 47028 1
52734 47030 47029 1
52735 47020 47027 1
52736 47019 47030 1
52737 47032 47031 1
52738 47033 47032 1
52739 47034 47033 1
52740 47030 47031 1
52741 47029 47034 1
52742 47036 47035 1
52743 47037 47036 1
52744 47038 47037 1
52745 47033 47035 1
52746 47032 47038 1
52747 47040 47039 1
52748 47041 47040 1
52749 47031 47041 1
52750 47038 47039 1
52751 47043 47042 1
52752 47044 47043 1
52753 47037 47044 1
52754 47039 47042 1
52755 47046 47045 1
52756 47040 47046 1
52757 47022 47041 1
52758 47021 47045 1
52759 47048 47047 1
52760 47046 47048 1
52761 47042 47047 1
52762 47050 47049 1
52763 47051 47050 1
52764 47052 47051 1
52765 47048 47049 1
52766 47047 47052 1
52767 47052 47053 2
52768 46907 47054 1
52769 46907 47055 1
52770 46908 47056 1
52771 46908 47057 1
52772 46909 47058 1
52773 46910 47059 1
52774 46911 47060 1
52775 46911 47061 1
52776 46913 47062 1
52777 46914 47063 1
52778 46915 47064 1
52779 46915 47065 1
52780 46916 47066 1
52781 46916 47067 1
52782 46918 47068 1
52783 46919 47069 1
52784 46920 47070 1
52785 46920 47071 1
52786 46924 47072 1
52787 46929 47073 1
52788 46929 47074 1
52789 46930 47075 1
52790 46930 47076 1
52791 46931 47077 1
52792 46941 47079 1
52793 46941 47080 1
52794 46942 47081 1
52795 46943 47082 1
52796 46943 47083 1
52797 46944 47084 1
52798 46944 47085 1
52799 46947 47086 1
52800 46947 47087 1
52801 46948 47088 1
52802 46949 47089 1
52803 46949 47090 1
52804 46950 47091 1
52805 46950 47092 1
52806 46952 47093 1
52807 46956 47094 1
52808 46963 47095 1
52809 46969 47096 1
52810 46978 47097 1
52811 46979 47098 1
52812 46980 47099 1
52813 46981 47100 1
52814 46981 47101 1
52815 46982 47102 1
52816 46982 47103 1
52817 46983 47104 1
52818 46984 47105 1
52819 46985 47106 1
52820 46985 47107 1
52821 46986 47108 1
52822 46986 47109 1
52823 46987 47110 1
52824 46987 47111 1
52825 46988 47112 1
52826 46993 47113 1
52827 46994 47114 1
52828 46996 47115 1
52829 46996 47116 1
52830 46997 47117 1
52831 46997 47118 1
52832 46998 47119 1
52833 46998 47120 1
52834 46999 47121 1
52835 46999 47122 1
52836 47001 47123 1
52837 47004 47124 1
52838 47007 47125 1
52839 47011 47126 1
52840 47012 47127 1
52841 47014 47128 1
52842 47015 47129 1
52843 47015 47130 1
52844 47016 47131 1
52845 47016 47132 1
52846 47017 47133 1
52847 47017 47134 1
52848 47023 47135 1
52849 47024 47136 1
52850 47024 47137 1
52851 47024 47138 1
52852 47025 47139 1
52853 47025 47140 1
52854 47025 47141 1
52855 47026 47142 1
52856 47027 47143 1
52857 47028 47144 1
52858 47034 47145 1
52859 47035 47146 1
52860 47036 47147 1
52861 47043 47148 1
52862 47044 47149 1
52863 47045 47150 1
52864 47049 47151 1
52865 47049 47152 1
52866 47050 47153 1
52867 47050 47154 1
52868 47051 47155 1
52869 47051 47156 1
52870 46937 47078 1
52871 47159 47158 1
52872 47160 47159 1
52873 47161 47160 1
52874 47162 47161 1
52875 47157 47158 1
52876 47157 47162 1
52877 47164 47163 1
52878 47165 47164 1
52879 47166 47165 1
52880 47160 47163 1
52881 47159 47166 1
52882 47168 47167 1
52883 47169 47168 1
52884 47170 47169 1
52885 47164 47167 1
52886 47163 47170 1
52887 47172 47171 1
52888 47173 47172 1
52889 47174 47173 1
52890 47169 47171 1
52891 47168 47174 1
52892 47176 47175 1
52893 47177 47176 1
52894 47178 47177 1
52895 47173 47175 1
52896 47172 47178 1
52897 47180 47179 1
52898 47181 47180 1
52899 47171 47181 2
52900 47178 47179 1
52901 47183 47182 1
52902 47184 47183 1
52903 47185 47184 1
52904 47177 47182 1
52905 47176 47185 1
52906 47187 47186 1
52907 47188 47187 1
52908 47174 47186 1
52909 47175 47188 1
52910 47190 47189 2
52911 47191 47190 1
52912 47192 47191 1
52913 47187 47189 1
52914 47186 47192 2
52915 47194 47193 1
52916 47195 47194 1
52917 47196 47195 2
52918 47190 47193 1
52919 47189 47196 1
52920 47198 47197 1
52921 47199 47198 1
52922 47200 47199 1
52923 47196 47197 1
52924 47195 47200 1
52925 47202 47201 1
52926 47188 47202 1
52927 47185 47201 1
52928 47204 47203 1
52929 47205 47204 1
52930 47201 47205 1
52931 47184 47203 1
52932 47207 47206 1
52933 47208 47207 1
52934 47209 47208 1
52935 47204 47206 1
52936 47203 47209 1
52937 47211 47210 1
52938 47212 47211 1
52939 47213 47212 1
52940 47208 47210 1
52941 47207 47213 1
52942 47215 47214 1
52943 47216 47215 1
52944 47217 47216 1
52945 47212 47214 1
52946 47211 47217 1
52947 47219 47218 1
52948 47183 47219 1
52949 47209 47218 1
52950 47221 47220 1
52951 47218 47221 1
52952 47210 47220 1
52953 47223 47222 1
52954 47220 47223 1
52955 47217 47222 1
52956 47225 47224 1
52957 47226 47225 1
52958 47222 47226 1
52959 47216 47224 1
52960 47228 47227 1
52961 47229 47228 1
52962 47230 47229 1
52963 47215 47227 1
52964 47214 47230 1
52965 47232 47231 1
52966 47233 47232 1
52967 47234 47233 1
52968 47229 47231 1
52969 47228 47234 1
52970 47236 47235 1
52971 47237 47236 1
52972 47238 47237 1
52973 47234 47235 1
52974 47233 47238 1
52975 47240 47239 1
52976 47241 47240 1
52977 47223 47241 1
52978 47221 47239 1
52979 47243 47242 1
52980 47244 47243 1
52981 47245 47244 1
52982 47240 47242 1
52983 47239 47245 1
52984 47247 47246 1
52985 47248 47247 1
52986 47249 47248 1
52987 47244 47246 1
52988 47243 47249 1
52989 47251 47250 1
52990 47241 47251 1
52991 47226 47250 1
52992 47253 47252 1
52993 47254 47253 1
52994 47250 47254 1
52995 47225 47252 1
52996 47256 47255 1
52997 47257 47256 1
52998 47224 47257 1
52999 47252 47255 1
53000 47259 47258 1
53001 47260 47259 1
53002 47253 47258 1
53003 47255 47260 1
53004 47262 47261 1
53005 47263 47262 1
53006 47256 47261 1
53007 47260 47263 1
53008 47265 47264 1
53009 47266 47265 1
53010 47267 47266 1
53011 47262 47264 1
53012 47261 47267 1
53013 47269 47268 1
53014 47270 47269 1
53015 47259 47270 1
53016 47263 47268 1
53017 47264 47271 1
53018 47268 47272 1
53019 47271 47272 1
53020 47198 47273 1
53021 47273 47274 1
53022 47273 47275 1
53023 47230 47276 1
53024 47278 47277 1
53025 47279 47278 1
53026 47280 47279 1
53027 47270 47277 1
53028 47269 47280 1
53029 47282 47281 1
53030 47283 47282 1
53031 47284 47283 1
53032 47280 47281 1
53033 47279 47284 1
53034 47286 47285 1
53035 47287 47286 1
53036 47288 47287 1
53037 47283 47285 1
53038 47282 47288 1
53039 47290 47289 1
53040 47291 47290 1
53041 47281 47291 1
53042 47288 47289 1
53043 47293 47292 1
53044 47294 47293 1
53045 47287 47294 1
53046 47289 47292 1
53047 47296 47295 1
53048 47290 47296 1
53049 47272 47291 1
53050 47271 47295 1
53051 47298 47297 1
53052 47296 47298 1
53053 47292 47297 1
53054 47300 47299 1
53055 47301 47300 1
53056 47302 47301 1
53057 47298 47299 1
53058 47297 47302 1
53059 47302 47303 2
53060 47157 47304 1
53061 47157 47305 1
53062 47158 47306 1
53063 47158 47307 1
53064 47159 47308 1
53065 47160 47309 1
53066 47161 47310 1
53067 47161 47311 1
53068 47163 47312 1
53069 47164 47313 1
53070 47165 47314 1
53071 47165 47315 1
53072 47166 47316 1
53073 47166 47317 1
53074 47168 47318 1
53075 47169 47319 1
53076 47170 47320 1
53077 47170 47321 1
53078 47174 47322 1
53079 47179 47323 1
53080 47179 47324 1
53081 47180 47325 1
53082 47180 47326 1
53083 47181 47327 1
53084 47191 47329 1
53085 47191 47330 1
53086 47192 47331 1
53087 47193 47332 1
53088 47193 47333 1
53089 47194 47334 1
53090 47194 47335 1
53091 47197 47336 1
53092 47197 47337 1
53093 47198 47338 1
53094 47199 47339 1
53095 47199 47340 1
53096 47200 47341 1
53097 47200 47342 1
53098 47202 47343 1
53099 47206 47344 1
53100 47213 47345 1
53101 47219 47346 1
53102 47228 47347 1
53103 47229 47348 1
53104 47230 47349 1
53105 47231 47350 1
53106 47231 47351 1
53107 47232 47352 1
53108 47232 47353 1
53109 47233 47354 1
53110 47234 47355 1
53111 47235 47356 1
53112 47235 47357 1
53113 47236 47358 1
53114 47236 47359 1
53115 47237 47360 1
53116 47237 47361 1
53117 47238 47362 1
53118 47243 47363 1
53119 47244 47364 1
53120 47246 47365 1
53121 47246 47366 1
53122 47247 47367 1
53123 47247 47368 1
53124 47248 47369 1
53125 47248 47370 1
53126 47249 47371 1
53127 47249 47372 1
53128 47251 47373 1
53129 47254 47374 1
53130 47257 47375 1
53131 47261 47376 1
53132 47262 47377 1
53133 47264 47378 1
53134 47265 47379 1
53135 47265 47380 1
53136 47266 47381 1
53137 47266 47382 1
53138 47267 47383 1
53139 47267 47384 1
53140 47273 47385 1
53141 47274 47386 1
53142 47274 47387 1
53143 47274 47388 1
53144 47275 47389 1
53145 47275 47390 1
53146 47275 47391 1
53147 47276 47392 1
53148 47277 47393 1
53149 47278 47394 1
53150 47284 47395 1
53151 47285 47396 1
53152 47286 47397 1
53153 47293 47398 1
53154 47294 47399 1
53155 47295 47400 1
53156 47299 47401 1
53157 47299 47402 1
53158 47300 47403 1
53159 47300 47404 1
53160 47301 47405 1
53161 47301 47406 1
53162 47187 47328 1
53163 47409 47408 1
53164 47410 47409 1
53165 47411 47410 1
53166 47412 47411 1
53167 47407 47408 1
53168 47407 47412 1
53169 47414 47413 1
53170 47415 47414 1
53171 47416 47415 1
53172 47410 47413 1
53173 47409 47416 1
53174 47418 47417 1
53175 47419 47418 1
53176 47420 47419 1
53177 47414 47417 1
53178 47413 47420 1
53179 47422 47421 1
53180 47423 47422 1
53181 47424 47423 1
53182 47419 47421 1
53183 47418 47424 1
53184 47426 47425 1
53185 47427 47426 1
53186 47428 47427 1
53187 47423 47425 1
53188 47422 47428 1
53189 47430 47429 1
53190 47431 47430 1
53191 47421 47431 2
53192 47428 47429 1
53193 47433 47432 1
53194 47434 47433 1
53195 47435 47434 1
53196 47427 47432 1
53197 47426 47435 1
53198 47437 47436 1
53199 47438 47437 1
53200 47424 47436 1
53201 47425 47438 1
53202 47440 47439 2
53203 47441 47440 1
53204 47442 47441 1
53205 47437 47439 1
53206 47436 47442 2
53207 47444 47443 1
53208 47445 47444 1
53209 47446 47445 2
53210 47440 47443 1
53211 47439 47446 1
53212 47448 47447 1
53213 47449 47448 1
53214 47450 47449 1
53215 47446 47447 1
53216 47445 47450 1
53217 47452 47451 1
53218 47438 47452 1
53219 47435 47451 1
53220 47454 47453 1
53221 47455 47454 1
53222 47451 47455 1
53223 47434 47453 1
53224 47457 47456 1
53225 47458 47457 1
53226 47459 47458 1
53227 47454 47456 1
53228 47453 47459 1
53229 47461 47460 1
53230 47462 47461 1
53231 47463 47462 1
53232 47458 47460 1
53233 47457 47463 1
53234 47465 47464 1
53235 47466 47465 1
53236 47467 47466 1
53237 47462 47464 1
53238 47461 47467 1
53239 47469 47468 1
53240 47433 47469 1
53241 47459 47468 1
53242 47471 47470 1
53243 47468 47471 1
53244 47460 47470 1
53245 47473 47472 1
53246 47470 47473 1
53247 47467 47472 1
53248 47475 47474 1
53249 47476 47475 1
53250 47472 47476 1
53251 47466 47474 1
53252 47478 47477 1
53253 47479 47478 1
53254 47480 47479 1
53255 47465 47477 1
53256 47464 47480 1
53257 47482 47481 1
53258 47483 47482 1
53259 47484 47483 1
53260 47479 47481 1
53261 47478 47484 1
53262 47486 47485 1
53263 47487 47486 1
53264 47488 47487 1
53265 47484 47485 1
53266 47483 47488 1
53267 47490 47489 1
53268 47491 47490 1
53269 47473 47491 1
53270 47471 47489 1
53271 47493 47492 1
53272 47494 47493 1
53273 47495 47494 1
53274 47490 47492 1
53275 47489 47495 1
53276 47497 47496 1
53277 47498 47497 1
53278 47499 47498 1
53279 47494 47496 1
53280 47493 47499 1
53281 47501 47500 1
53282 47491 47501 1
53283 47476 47500 1
53284 47503 47502 1
53285 47504 47503 1
53286 47500 47504 1
53287 47475 47502 1
53288 47506 47505 1
53289 47507 47506 1
53290 47474 47507 1
53291 47502 47505 1
53292 47509 47508 1
53293 47510 47509 1
53294 47503 47508 1
53295 47505 47510 1
53296 47512 47511 1
53297 47513 47512 1
53298 47506 47511 1
53299 47510 47513 1
53300 47515 47514 1
53301 47516 47515 1
53302 47517 47516 1
53303 47512 47514 1
53304 47511 47517 1
53305 47519 47518 1
53306 47520 47519 1
53307 47509 47520 1
53308 47513 47518 1
53309 47514 47521 1
53310 47518 47522 1
53311 47521 47522 1
53312 47448 47523 1
53313 47523 47524 1
53314 47523 47525 1
53315 47480 47526 1
53316 47528 47527 1
53317 47529 47528 1
53318 47530 47529 1
53319 47520 47527 1
53320 47519 47530 1
53321 47532 47531 1
53322 47533 47532 1
53323 47534 47533 1
53324 47530 47531 1
53325 47529 47534 1
53326 47536 47535 1
53327 47537 47536 1
53328 47538 47537 1
53329 47533 47535 1
53330 47532 47538 1
53331 47540 47539 1
53332 47541 47540 1
53333 47531 47541 1
53334 47538 47539 1
53335 47543 47542 1
53336 47544 47543 1
53337 47537 47544 1
53338 47539 47542 1
53339 47546 47545 1
53340 47540 47546 1
53341 47522 47541 1
53342 47521 47545 1
53343 47548 47547 1
53344 47546 47548 1
53345 47542 47547 1
53346 47550 47549 1
53347 47551 47550 1
53348 47552 47551 1
53349 47548 47549 1
53350 47547 47552 1
53351 47552 47553 2
53352 47407 47554 1
53353 47407 47555 1
53354 47408 47556 1
53355 47408 47557 1
53356 47409 47558 1
53357 47410 47559 1
53358 47411 47560 1
53359 47411 47561 1
53360 47413 47562 1
53361 47414 47563 1
53362 47415 47564 1
53363 47415 47565 1
53364 47416 47566 1
53365 47416 47567 1
53366 47418 47568 1
53367 47419 47569 1
53368 47420 47570 1
53369 47420 47571 1
53370 47424 47572 1
53371 47429 47573 1
53372 47429 47574 1
53373 47430 47575 1
53374 47430 47576 1
53375 47431 47577 1
53376 47441 47579 1
53377 47441 47580 1
53378 47442 47581 1
53379 47443 47582 1
53380 47443 47583 1
53381 47444 47584 1
53382 47444 47585 1
53383 47447 47586 1
53384 47447 47587 1
53385 47448 47588 1
53386 47449 47589 1
53387 47449 47590 1
53388 47450 47591 1
53389 47450 47592 1
53390 47452 47593 1
53391 47456 47594 1
53392 47463 47595 1
53393 47469 47596 1
53394 47478 47597 1
53395 47479 47598 1
53396 47480 47599 1
53397 47481 47600 1
53398 47481 47601 1
53399 47482 47602 1
53400 47482 47603 1
53401 47483 47604 1
53402 47484 47605 1
53403 47485 47606 1
53404 47485 47607 1
53405 47486 47608 1
53406 47486 47609 1
53407 47487 47610 1
53408 47487 47611 1
53409 47488 47612 1
53410 47493 47613 1
53411 47494 47614 1
53412 47496 47615 1
53413 47496 47616 1
53414 47497 47617 1
53415 47497 47618 1
53416 47498 47619 1
53417 47498 47620 1
53418 47499 47621 1
53419 47499 47622 1
53420 47501 47623 1
53421 47504 47624 1
53422 47507 47625 1
53423 47511 47626 1
53424 47512 47627 1
53425 47514 47628 1
53426 47515 47629 1
53427 47515 47630 1
53428 47516 47631 1
53429 47516 47632 1
53430 47517 47633 1
53431 47517 47634 1
53432 47523 47635 1
53433 47524 47636 1
53434 47524 47637 1
53435 47524 47638 1
53436 47525 47639 1
53437 47525 47640 1
53438 47525 47641 1
53439 47526 47642 1
53440 47527 47643 1
53441 47528 47644 1
53442 47534 47645 1
53443 47535 47646 1
53444 47536 47647 1
53445 47543 47648 1
53446 47544 47649 1
53447 47545 47650 1
53448 47549 47651 1
53449 47549 47652 1
53450 47550 47653 1
53451 47550 47654 1
53452 47551 47655 1
53453 47551 47656 1
53454 47437 47578 1
53455 47659 47658 1
53456 47660 47659 1
53457 47661 47660 1
53458 47662 47661 1
53459 47657 47658 1
53460 47657 47662 1
53461 47664 47663 1
53462 47665 47664 1
53463 47666 47665 1
53464 47660 47663 1
53465 47659 47666 1
53466 47668 47667 1
53467 47669 47668 1
53468 47670 47669 1
53469 47664 47667 1
53470 47663 47670 1
53471 47672 47671 1
53472 47673 47672 1
53473 47674 47673 1
53474 47669 47671 1
53475 47668 47674 1
53476 47676 47675 1
53477 47677 47676 1
53478 47678 47677 1
53479 47673 47675 1
53480 47672 47678 1
53481 47680 47679 1
53482 47681 47680 1
53483 47671 47681 2
53484 47678 47679 1
53485 47683 47682 1
53486 47684 47683 1
53487 47685 47684 1
53488 47677 47682 1
53489 47676 47685 1
53490 47687 47686 1
53491 47688 47687 1
53492 47674 47686 1
53493 47675 47688 1
53494 47690 47689 2
53495 47691 47690 1
53496 47692 47691 1
53497 47687 47689 1
53498 47686 47692 2
53499 47694 47693 1
53500 47695 47694 1
53501 47696 47695 2
53502 47690 47693 1
53503 47689 47696 1
53504 47698 47697 1
53505 47699 47698 1
53506 47700 47699 1
53507 47696 47697 1
53508 47695 47700 1
53509 47702 47701 1
53510 47688 47702 1
53511 47685 47701 1
53512 47704 47703 1
53513 47705 47704 1
53514 47701 47705 1
53515 47684 47703 1
53516 47707 47706 1
53517 47708 47707 1
53518 47709 47708 1
53519 47704 47706 1
53520 47703 47709 1
53521 47711 47710 1
53522 47712 47711 1
53523 47713 47712 1
53524 47708 47710 1
53525 47707 47713 1
53526 47715 47714 1
53527 47716 47715 1
53528 47717 47716 1
53529 47712 47714 1
53530 47711 47717 1
53531 47719 47718 1
53532 47683 47719 1
53533 47709 47718 1
53534 47721 47720 1
53535 47718 47721 1
53536 47710 47720 1
53537 47723 47722 1
53538 47720 47723 1
53539 47717 47722 1
53540 47725 47724 1
53541 47726 47725 1
53542 47722 47726 1
53543 47716 47724 1
53544 47728 47727 1
53545 47729 47728 1
53546 47730 47729 1
53547 47715 47727 1
53548 47714 47730 1
53549 47732 47731 1
53550 47733 47732 1
53551 47734 47733 1
53552 47729 47731 1
53553 47728 47734 1
53554 47736 47735 1
53555 47737 47736 1
53556 47738 47737 1
53557 47734 47735 1
53558 47733 47738 1
53559 47740 47739 1
53560 47741 47740 1
53561 47723 47741 1
53562 47721 47739 1
53563 47743 47742 1
53564 47744 47743 1
53565 47745 47744 1
53566 47740 47742 1
53567 47739 47745 1
53568 47747 47746 1
53569 47748 47747 1
53570 47749 47748 1
53571 47744 47746 1
53572 47743 47749 1
53573 47751 47750 1
53574 47741 47751 1
53575 47726 47750 1
53576 47753 47752 1
53577 47754 47753 1
53578 47750 47754 1
53579 47725 47752 1
53580 47756 47755 1
53581 47757 47756 1
53582 47724 47757 1
53583 47752 47755 1
53584 47759 47758 1
53585 47760 47759 1
53586 47753 47758 1
53587 47755 47760 1
53588 47762 47761 1
53589 47763 47762 1
53590 47756 47761 1
53591 47760 47763 1
53592 47765 47764 1
53593 47766 47765 1
53594 47767 47766 1
53595 47762 47764 1
53596 47761 47767 1
53597 47769 47768 1
53598 47770 47769 1
53599 47759 47770 1
53600 47763 47768 1
53601 47764 47771 1
53602 47768 47772 1
53603 47771 47772 1
53604 47698 47773 1
53605 47773 47774 1
53606 47773 47775 1
53607 47730 47776 1
53608 47778 47777 1
53609 47779 47778 1
53610 47780 47779 1
53611 47770 47777 1
53612 47769 47780 1
53613 47782 47781 1
53614 47783 47782 1
53615 47784 47783 1
53616 47780 47781 1
53617 47779 47784 1
53618 47786 47785 1
53619 47787 47786 1
53620 47788 47787 1
53621 47783 47785 1
53622 47782 47788 1
53623 47790 47789 1
53624 47791 47790 1
53625 47781 47791 1
53626 47788 47789 1
53627 47793 47792 1
53628 47794 47793 1
53629 47787 47794 1
53630 47789 47792 1
53631 47796 47795 1
53632 47790 47796 1
53633 47772 47791 1
53634 47771 47795 1
53635 47798 47797 1
53636 47796 47798 1
53637 47792 47797 1
53638 47800 47799 1
53639 47801 47800 1
53640 47802 47801 1
53641 47798 47799 1
53642 47797 47802 1
53643 47802 47803 2
53644 47657 47804 1
53645 47657 47805 1
53646 47658 47806 1
53647 47658 47807 1
53648 47659 47808 1
53649 47660 47809 1
53650 47661 47810 1
53651 47661 47811 1
53652 47663 47812 1
53653 47664 47813 1
53654 47665 47814 1
53655 47665 47815 1
53656 47666 47816 1
53657 47666 47817 1
53658 47668 47818 1
53659 47669 47819 1
53660 47670 47820 1
53661 47670 47821 1
53662 47674 47822 1
53663 47679 47823 1
53664 47679 47824 1
53665 47680 47825 1
53666 47680 47826 1
53667 47681 47827 1
53668 47691 47829 1
53669 47691 47830 1
53670 47692 47831 1
53671 47693 47832 1
53672 47693 47833 1
53673 47694 47834 1
53674 47694 47835 1
53675 47697 47836 1
53676 47697 47837 1
53677 47698 47838 1
53678 47699 47839 1
53679 47699 47840 1
53680 47700 47841 1
53681 47700 47842 1
53682 47702 47843 1
53683 47706 47844 1
53684 47713 47845 1
53685 47719 47846 1
53686 47728 47847 1
53687 47729 47848 1
53688 47730 47849 1
53689 47731 47850 1
53690 47731 47851 1
53691 47732 47852 1
53692 47732 47853 1
53693 47733 47854 1
53694 47734 47855 1
53695 47735 47856 1
53696 47735 47857 1
53697 47736 47858 1
53698 47736 47859 1
53699 47737 47860 1
53700 47737 47861 1
53701 47738 47862 1
53702 47743 47863 1
53703 47744 47864 1
53704 47746 47865 1
53705 47746 47866 1
53706 47747 47867 1
53707 47747 47868 1
53708 47748 47869 1
53709 47748 47870 1
53710 47749 47871 1
53711 47749 47872 1
53712 47751 47873 1
53713 47754 47874 1
53714 47757 47875 1
53715 47761 47876 1
53716 47762 47877 1
53717 47764 47878 1
53718 47765 47879 1
53719 47765 47880 1
53720 47766 47881 1
53721 47766 47882 1
53722 47767 47883 1
53723 47767 47884 1
53724 47773 47885 1
53725 47774 47886 1
53726 47774 47887 1
53727 47774 47888 1
53728 47775 47889 1
53729 47775 47890 1
53730 47775 47891 1
53731 47776 47892 1
53732 47777 47893 1
53733 47778 47894 1
53734 47784 47895 1
53735 47785 47896 1
53736 47786 47897 1
53737 47793 47898 1
53738 47794 47899 1
53739 47795 47900 1
53740 47799 47901 1
53741 47799 47902 1
53742 47800 47903 1
53743 47800 47904 1
53744 47801 47905 1
53745 47801 47906 1
53746 47687 47828 1
53747 47909 47908 1
53748 47910 47909 1
53749 47911 47910 1
53750 47912 47911 1
53751 47907 47908 1
53752 47907 47912 1
53753 47914 47913 1
53754 47915 47914 1
53755 47916 47915 1
53756 47910 47913 1
53757 47909 47916 1
53758 47918 47917 1
53759 47919 47918 1
53760 47920 47919 1
53761 47914 47917 1
53762 47913 47920 1
53763 47922 47921 1
53764 47923 47922 1
53765 47924 47923 1
53766 47919 47921 1
53767 47918 47924 1
53768 47926 47925 1
53769 47927 47926 1
53770 47928 47927 1
53771 47923 47925 1
53772 47922 47928 1
53773 47930 47929 1
53774 47931 47930 1
53775 47921 47931 2
53776 47928 47929 1
53777 47933 47932 1
53778 47934 47933 1
53779 47935 47934 1
53780 47927 47932 1
53781 47926 47935 1
53782 47937 47936 1
53783 47938 47937 1
53784 47924 47936 1
53785 47925 47938 1
53786 47940 47939 2
53787 47941 47940 1
53788 47942 47941 1
53789 47937 47939 1
53790 47936 47942 2
53791 47944 47943 1
53792 47945 47944 1
53793 47946 47945 2
53794 47940 47943 1
53795 47939 47946 1
53796 47948 47947 1
53797 47949 47948 1
53798 47950 47949 1
53799 47946 47947 1
53800 47945 47950 1
53801 47952 47951 1
53802 47938 47952 1
53803 47935 47951 1
53804 47954 47953 1
53805 47955 47954 1
53806 47951 47955 1
53807 47934 47953 1
53808 47957 47956 1
53809 47958 47957 1
53810 47959 47958 1
53811 47954 47956 1
53812 47953 47959 1
53813 47961 47960 1
53814 47962 47961 1
53815 47963 47962 1
53816 47958 47960 1
53817 47957 47963 1
53818 47965 47964 1
53819 47966 47965 1
53820 47967 47966 1
53821 47962 47964 1
53822 47961 47967 1
53823 47969 47968 1
53824 47933 47969 1
53825 47959 47968 1
53826 47971 47970 1
53827 47968 47971 1
53828 47960 47970 1
53829 47973 47972 1
53830 47970 47973 1
53831 47967 47972 1
53832 47975 47974 1
53833 47976 47975 1
53834 47972 47976 1
53835 47966 47974 1
53836 47978 47977 1
53837 47979 47978 1
53838 47980 47979 1
53839 47965 47977 1
53840 47964 47980 1
53841 47982 47981 1
53842 47983 47982 1
53843 47984 47983 1
53844 47979 47981 1
53845 47978 47984 1
53846 47986 47985 1
53847 47987 47986 1
53848 47988 47987 1
53849 47984 47985 1
53850 47983 47988 1
53851 47990 47989 1
53852 47991 47990 1
53853 47973 47991 1
53854 47971 47989 1
53855 47993 47992 1
53856 47994 47993 1
53857 47995 47994 1
53858 47990 47992 1
53859 47989 47995 1
53860 47997 47996 1
53861 47998 47997 1
53862 47999 47998 1
53863 47994 47996 1
53864 47993 47999 1
53865 48001 48000 1
53866 47991 48001 1
53867 47976 48000 1
53868 48003 48002 1
53869 48004 48003 1
53870 48000 48004 1
53871 47975 48002 1
53872 48006 48005 1
53873 48007 48006 1
53874 47974 48007 1
53875 48002 48005 1
53876 48009 48008 1
53877 48010 48009 1
53878 48003 48008 1
53879 48005 48010 1
53880 48012 48011 1
53881 48013 48012 1
53882 48006 48011 1
53883 48010 48013 1
53884 48015 48014 1
53885 48016 48015 1
53886 48017 48016 1
53887 48012 48014 1
53888 48011 48017 1
53889 48019 48018 1
53890 48020 48019 1
53891 48009 48020 1
53892 48013 48018 1
53893 48014 48021 1
53894 48018 48022 1
53895 48021 48022 1
53896 47948 48023 1
53897 48023 48024 1
53898 48023 48025 1
53899 47980 48026 1
53900 48028 48027 1
53901 48029 48028 1
53902 48030 48029 1
53903 48020 48027 1
53904 48019 48030 1
53905 48032 48031 1
53906 48033 48032 1
53907 48034 48033 1
53908 48030 48031 1
53909 48029 48034 1
53910 48036 48035 1
53911 48037 48036 1
53912 48038 48037 1
53913 48033 48035 1
53914 48032 48038 1
53915 48040 48039 1
53916 48041 48040 1
53917 48031 48041 1
53918 48038 48039 1
53919 48043 48042 1
53920 48044 48043 1
53921 48037 48044 1
53922 48039 48042 1
53923 48046 48045 1
53924 48040 48046 1
53925 48022 48041 1
53926 48021 48045 1
53927 48048 48047 1
53928 48046 48048 1
53929 48042 48047 1
53930 48050 48049 1
53931 48051 48050 1
53932 48052 48051 1
53933 48048 48049 1
53934 48047 48052 1
53935 48052 48053 2
53936 47907 48054 1
53937 47907 48055 1
53938 47908 48056 1
53939 47908 48057 1
53940 47909 48058 1
53941 47910 48059 1
53942 47911 48060 1
53943 47911 48061 1
53944 47913 48062 1
53945 47914 48063 1
53946 47915 48064 1
53947 47915 48065 1
53948 47916 48066 1
53949 47916 48067 1
53950 47918 48068 1
53951 47919 48069 1
53952 47920 48070 1
53953 47920 48071 1
53954 47924 48072 1
53955 47929 48073 1
53956 47929 48074 1
53957 47930 48075 1
53958 47930 48076 1
53959 47931 48077 1
53960 47941 48079 1
53961 47941 48080 1
53962 47942 48081 1
53963 47943 48082 1
53964 47943 48083 1
53965 47944 48084 1
53966 47944 48085 1
53967 47947 48086 1
53968 47947 48087 1
53969 47948 48088 1
53970 47949 48089 1
53971 47949 48090 1
53972 47950 48091 1
53973 47950 48092 1
53974 47952 48093 1
53975 47956 48094 1
53976 47963 48095 1
53977 47969 48096 1
53978 47978 48097 1
53979 47979 48098 1
53980 47980 48099 1
53981 47981 48100 1
53982 47981 48101 1
53983 47982 48102 1
53984 47982 48103 1
53985 47983 48104 1
53986 47984 48105 1
53987 47985 48106 1
53988 47985 48107 1
53989 47986 48108 1
53990 47986 48109 1
53991 47987 48110 1
53992 47987 48111 1
53993 47988 48112 1
53994 47993 48113 1
53995 47994 48114 1
53996 47996 48115 1
53997 47996 48116 1
53998 47997 48117 1
53999 47997 48118 1
54000 47998 48119 1
54001 47998 48120 1
54002 47999 48121 1
54003 47999 48122 1
54004 48001 48123 1
54005 48004 48124 1
54006 48007 48125 1
54007 48011 48126 1
54008 48012 48127 1
54009 48014 48128 1
54010 48015 48129 1
54011 48015 48130 1
54012 48016 48131 1
54013 48016 48132 1
54014 48017 48133 1
54015 48017 48134 1
54016 48023 48135 1
54017 48024 48136 1
54018 48024 48137 1
54019 48024 48138 1
54020 48025 48139 1
54021 48025 48140 1
54022 48025 48141 1
54023 48026 48142 1
54024 48027 48143 1
54025 48028 48144 1
54026 48034 48145 1
54027 48035 48146 1
54028 48036 48147 1
54029 48043 48148 1
54030 48044 48149 1
54031 48045 48150 1
54032 48049 48151 1
54033 48049 48152 1
54034 48050 48153 1
54035 48050 48154 1
54036 48051 48155 1
54037 48051 48156 1
54038 47937 48078 1
54039 48159 48158 1
54040 48160 48159 1
54041 48161 48160 1
54042 48162 48161 1
54043 48157 48158 1
54044 48157 48162 1
54045 48164 48163 1
54046 48165 48164 1
54047 48166 48165 1
54048 48160 48163 1
54049 48159 48166 1
54050 48168 48167 1
54051 48169 48168 1
54052 48170 48169 1
54053 48164 48167 1
54054 48163 48170 1
54055 48172 48171 1
54056 48173 48172 1
54057 48174 48173 1
54058 48169 48171 1
54059 48168 48174 1
54060 48176 48175 1
54061 48177 48176 1
54062 48178 48177 1
54063 48173 48175 1
54064 48172 48178 1
54065 48180 48179 1
54066 48181 48180 1
54067 48171 48181 2
54068 48178 48179 1
54069 48183 48182 1
54070 48184 48183 1
54071 48185 48184 1
54072 48177 48182 1
54073 48176 48185 1
54074 48187 48186 1
54075 48188 48187 1
54076 48174 48186 1
54077 48175 48188 1
54078 48190 48189 2
54079 48191 48190 1
54080 48192 48191 1
54081 48187 48189 1
54082 48186 48192 2
54083 48194 48193 1
54084 48195 48194 1
54085 48196 48195 2
54086 48190 48193 1
54087 48189 48196 1
54088 48198 48197 1
54089 48199 48198 1
54090 48200 48199 1
54091 48196 48197 1
54092 48195 48200 1
54093 48202 48201 1
54094 48188 48202 1
54095 48185 48201 1
54096 48204 48203 1
54097 48205 48204 1
54098 48201 48205 1
54099 48184 48203 1
54100 48207 48206 1
54101 48208 48207 1
54102 48209 48208 1
54103 48204 48206 1
54104 48203 48209 1
54105 48211 48210 1
54106 48212 48211 1
54107 48213 48212 1
54108 48208 48210 1
54109 48207 48213 1
54110 48215 48214 1
54111 48216 48215 1
54112 48217 48216 1
54113 48212 48214 1
54114 48211 48217 1
54115 48219 48218 1
54116 48183 48219 1
54117 48209 48218 1
54118 48221 48220 1
54119 48218 48221 1
54120 48210 48220 1
54121 48223 48222 1
54122 48220 48223 1
54123 48217 48222 1
54124 48225 48224 1
54125 48226 48225 1
54126 48222 48226 1
54127 48216 48224 1
54128 48228 48227 1
54129 48229 48228 1
54130 48230 48229 1
54131 48215 48227 1
54132 48214 48230 1
54133 48232 48231 1
54134 48233 48232 1
54135 48234 48233 1
54136 48229 48231 1
54137 48228 48234 1
54138 48236 48235 1
54139 48237 48236 1
54140 48238 48237 1
54141 48234 48235 1
54142 48233 48238 1
54143 48240 48239 1
54144 48241 48240 1
54145 48223 48241 1
54146 48221 48239 1
54147 48243 48242 1
54148 48244 48243 1
54149 48245 48244 1
54150 48240 48242 1
54151 48239 48245 1
54152 48247 48246 1
54153 48248 48247 1
54154 48249 48248 1
54155 48244 48246 1
54156 48243 48249 1
54157 48251 48250 1
54158 48241 48251 1
54159 48226 48250 1
54160 48253 48252 1
54161 48254 48253 1
54162 48250 48254 1
54163 48225 48252 1
54164 48256 48255 1
54165 48257 48256 1
54166 48224 48257 1
54167 48252 48255 1
54168 48259 48258 1
54169 48260 48259 1
54170 48253 48258 1
54171 48255 48260 1
54172 48262 48261 1
54173 48263 48262 1
54174 48256 48261 1
54175 48260 48263 1
54176 48265 48264 1
54177 48266 48265 1
54178 48267 48266 1
54179 48262 48264 1
54180 48261 48267 1
54181 48269 48268 1
54182 48270 48269 1
54183 48259 48270 1
54184 48263 48268 1
54185 48264 48271 1
54186 48268 48272 1
54187 48271 48272 1
54188 48198 48273 1
54189 48273 48274 1
54190 48273 48275 1
54191 48230 48276 1
54192 48278 48277 1
54193 48279 48278 1
54194 48280 48279 1
54195 48270 48277 1
54196 48269 48280 1
54197 48282 48281 1
54198 48283 48282 1
54199 48284 48283 1
54200 48280 48281 1
54201 48279 48284 1
54202 48286 48285 1
54203 48287 48286 1
54204 48288 48287 1
54205 48283 48285 1
54206 48282 48288 1
54207 48290 48289 1
54208 48291 48290 1
54209 48281 48291 1
54210 48288 48289 1
54211 48293 48292 1
54212 48294 48293 1
54213 48287 48294 1
54214 48289 48292 1
54215 48296 48295 1
54216 48290 48296 1
54217 48272 48291 1
54218 48271 48295 1
54219 48298 48297 1
54220 48296 48298 1
54221 48292 48297 1
54222 48300 48299 1
54223 48301 48300 1
54224 48302 48301 1
54225 48298 48299 1
54226 48297 48302 1
54227 48302 48303 2
54228 48157 48304 1
54229 48157 48305 1
54230 48158 48306 1
54231 48158 48307 1
54232 48159 48308 1
54233 48160 48309 1
54234 48161 48310 1
54235 48161 48311 1
54236 48163 48312 1
54237 48164 48313 1
54238 48165 48314 1
54239 48165 48315 1
54240 48166 48316 1
54241 48166 48317 1
54242 48168 48318 1
54243 48169 48319 1
54244 48170 48320 1
54245 48170 48321 1
54246 48174 48322 1
54247 48179 48323 1
54248 48179 48324 1
54249 48180 48325 1
54250 48180 48326 1
54251 48181 48327 1
54252 48191 48329 1
54253 48191 48330 1
54254 48192 48331 1
54255 48193 48332 1
54256 48193 48333 1
54257 48194 48334 1
54258 48194 48335 1
54259 48197 48336 1
54260 48197 48337 1
54261 48198 48338 1
54262 48199 48339 1
54263 48199 48340 1
54264 48200 48341 1
54265 48200 48342 1
54266 48202 48343 1
54267 48206 48344 1
54268 48213 48345 1
54269 48219 48346 1
54270 48228 48347 1
54271 48229 48348 1
54272 48230 48349 1
54273 48231 48350 1
54274 48231 48351 1
54275 48232 48352 1
54276 48232 48353 1
54277 48233 48354 1
54278 48234 48355 1
54279 48235 48356 1
54280 48235 48357 1
54281 48236 48358 1
54282 48236 48359 1
54283 48237 48360 1
54284 48237 48361 1
54285 48238 48362 1
54286 48243 48363 1
54287 48244 48364 1
54288 48246 48365 1
54289 48246 48366 1
54290 48247 48367 1
54291 48247 48368 1
54292 48248 48369 1
54293 48248 48370 1
54294 48249 48371 1
54295 48249 48372 1
54296 48251 48373 1
54297 48254 48374 1
54298 48257 48375 1
54299 48261 48376 1
54300 48262 48377 1
54301 48264 48378 1
54302 48265 48379 1
54303 48265 48380 1
54304 48266 48381 1
54305 48266 48382 1
54306 48267 48383 1
54307 48267 48384 1
54308 48273 48385 1
54309 48274 48386 1
54310 48274 48387 1
54311 48274 48388 1
54312 48275 48389 1
54313 48275 48390 1
54314 48275 48391 1
54315 48276 48392 1
54316 48277 48393 1
54317 48278 48394 1
54318 48284 48395 1
54319 48285 48396 1
54320 48286 48397 1
54321 48293 48398 1
54322 48294 48399 1
54323 48295 48400 1
54324 48299 48401 1
54325 48299 48402 1
54326 48300 48403 1
54327 48300 48404 1
54328 48301 48405 1
54329 48301 48406 1
54330 48187 48328 1
54331 48409 48408 1
54332 48410 48409 1
54333 48411 48410 1
54334 48412 48411 1
54335 48407 48408 1
54336 48407 48412 1
54337 48414 48413 1
54338 48415 48414 1
54339 48416 48415 1
54340 48410 48413 1
54341 48409 48416 1
54342 48418 48417 1
54343 48419 48418 1
54344 48420 48419 1
54345 48414 48417 1
54346 48413 48420 1
54347 48422 48421 1
54348 48423 48422 1
54349 48424 48423 1
54350 48419 48421 1
54351 48418 48424 1
54352 48426 48425 1
54353 48427 48426 1
54354 48428 48427 1
54355 48423 48425 1
54356 48422 48428 1
54357 48430 48429 1
54358 48431 48430 1
54359 48421 48431 2
54360 48428 48429 1
54361 48433 48432 1
54362 48434 48433 1
54363 48435 48434 1
54364 48427 48432 1
54365 48426 48435 1
54366 48437 48436 1
54367 48438 48437 1
54368 48424 48436 1
54369 48425 48438 1
54370 48440 48439 2
54371 48441 48440 1
54372 48442 48441 1
54373 48437 48439 1
54374 48436 48442 2
54375 48444 48443 1
54376 48445 48444 1
54377 48446 48445 2
54378 48440 48443 1
54379 48439 48446 1
54380 48448 48447 1
54381 48449 48448 1
54382 48450 48449 1
54383 48446 48447 1
54384 48445 48450 1
54385 48452 48451 1
54386 48438 48452 1
54387 48435 48451 1
54388 48454 48453 1
54389 48455 48454 1
54390 48451 48455 1
54391 48434 48453 1
54392 48457 48456 1
54393 48458 48457 1
54394 48459 48458 1
54395 48454 48456 1
54396 48453 48459 1
54397 48461 48460 1
54398 48462 48461 1
54399 48463 48462 1
54400 48458 48460 1
54401 48457 48463 1
54402 48465 48464 1
54403 48466 48465 1
54404 48467 48466 1
54405 48462 48464 1
54406 48461 48467 1
54407 48469 48468 1
54408 48433 48469 1
54409 48459 48468 1
54410 48471 48470 1
54411 48468 48471 1
54412 48460 48470 1
54413 48473 48472 1
54414 48470 48473 1
54415 48467 48472 1
54416 48475 48474 1
54417 48476 48475 1
54418 48472 48476 1
54419 48466 48474 1
54420 48478 48477 1
54421 48479 48478 1
54422 48480 48479 1
54423 48465 48477 1
54424 48464 48480 1
54425 48482 48481 1
54426 48483 48482 1
54427 48484 48483 1
54428 48479 48481 1
54429 48478 48484 1
54430 48486 48485 1
54431 48487 48486 1
54432 48488 48487 1
54433 48484 48485 1
54434 48483 48488 1
54435 48490 48489 1
54436 48491 48490 1
54437 48473 48491 1
54438 48471 48489 1
54439 48493 48492 1
54440 48494 48493 1
54441 48495 48494 1
54442 48490 48492 1
54443 48489 48495 1
54444 48497 48496 1
54445 48498 48497 1
54446 48499 48498 1
54447 48494 48496 1
54448 48493 48499 1
54449 48501 48500 1
54450 48491 48501 1
54451 48476 48500 1
54452 48503 48502 1
54453 48504 48503 1
54454 48500 48504 1
54455 48475 48502 1
54456 48506 48505 1
54457 48507 48506 1
54458 48474 48507 1
54459 48502 48505 1
54460 48509 48508 1
54461 48510 48509 1
54462 48503 48508 1
54463 48505 48510 1
54464 48512 48511 1
54465 48513 48512 1
54466 48506 48511 1
54467 48510 48513 1
54468 48515 48514 1
54469 48516 48515 1
54470 48517 48516 1
54471 48512 48514 1
54472 48511 48517 1
54473 48519 48518 1
54474 48520 48519 1
54475 48509 48520 1
54476 48513 48518 1
54477 48514 48521 1
54478 48518 48522 1
54479 48521 48522 1
54480 48448 48523 1
54481 48523 48524 1
54482 48523 48525 1
54483 48480 48526 1
54484 48528 48527 1
54485 48529 48528 1
54486 48530 48529 1
54487 48520 48527 1
54488 48519 48530 1
54489 48532 48531 1
54490 48533 48532 1
54491 48534 48533 1
54492 48530 48531 1
54493 48529 48534 1
54494 48536 48535 1
54495 48537 48536 1
54496 48538 48537 1
54497 48533 48535 1
54498 48532 48538 1
54499 48540 48539 1
54500 48541 48540 1
54501 48531 48541 1
54502 48538 48539 1
54503 48543 48542 1
54504 48544 48543 1
54505 48537 48544 1
54506 48539 48542 1
54507 48546 48545 1
54508 48540 48546 1
54509 48522 48541 1
54510 48521 48545 1
54511 48548 48547 1
54512 48546 48548 1
54513 48542 48547 1
54514 48550 48549 1
54515 48551 48550 1
54516 48552 48551 1
54517 48548 48549 1
54518 48547 48552 1
54519 48552 48553 2
54520 48407 48554 1
54521 48407 48555 1
54522 48408 48556 1
54523 48408 48557 1
54524 48409 48558 1
54525 48410 48559 1
54526 48411 48560 1
54527 48411 48561 1
54528 48413 48562 1
54529 48414 48563 1
54530 48415 48564 1
54531 48415 48565 1
54532 48416 48566 1
54533 48416 48567 1
54534 48418 48568 1
54535 48419 48569 1
54536 48420 48570 1
54537 48420 48571 1
54538 48424 48572 1
54539 48429 48573 1
54540 48429 48574 1
54541 48430 48575 1
54542 48430 48576 1
54543 48431 48577 1
54544 48441 48579 1
54545 48441 48580 1
54546 48442 48581 1
54547 48443 48582 1
54548 48443 48583 1
54549 48444 48584 1
54550 48444 48585 1
54551 48447 48586 1
54552 48447 48587 1
54553 48448 48588 1
54554 48449 48589 1
54555 48449 48590 1
54556 48450 48591 1
54557 48450 48592 1
54558 48452 48593 1
54559 48456 48594 1
54560 48463 48595 1
54561 48469 48596 1
54562 48478 48597 1
54563 48479 48598 1
54564 48480 48599 1
54565 48481 48600 1
54566 48481 48601 1
54567 48482 48602 1
54568 48482 48603 1
54569 48483 48604 1
54570 48484 48605 1
54571 48485 48606 1
54572 48485 48607 1
54573 48486 48608 1
54574 48486 48609 1
54575 48487 48610 1
54576 48487 48611 1
54577 48488 48612 1
54578 48493 48613 1
54579 48494 48614 1
54580 48496 48615 1
54581 48496 48616 1
54582 48497 48617 1
54583 48497 48618 1
54584 48498 48619 1
54585 48498 48620 1
54586 48499 48621 1
54587 48499 48622 1
54588 48501 48623 1
54589 48504 48624 1
54590 48507 48625 1
54591 48511 48626 1
54592 48512 48627 1
54593 48514 48628 1
54594 48515 48629 1
54595 48515 48630 1
54596 48516 48631 1
54597 48516 48632 1
54598 48517 48633 1
54599 48517 48634 1
54600 48523 48635 1
54601 48524 48636 1
54602 48524 48637 1
54603 48524 48638 1
54604 48525 48639 1
54605 48525 48640 1
54606 48525 48641 1
54607 48526 48642 1
54608 48527 48643 1
54609 48528 48644 1
54610 48534 48645 1
54611 48535 48646 1
54612 48536 48647 1
54613 48543 48648 1
54614 48544 48649 1
54615 48545 48650 1
54616 48549 48651 1
54617 48549 48652 1
54618 48550 48653 1
54619 48550 48654 1
54620 48551 48655 1
54621 48551 48656 1
54622 48437 48578 1
54623 48659 48658 1
54624 48660 48659 1
54625 48661 48660 1
54626 48662 48661 1
54627 48657 48658 1
54628 48657 48662 1
54629 48664 48663 1
54630 48665 48664 1
54631 48666 48665 1
54632 48660 48663 1
54633 48659 48666 1
54634 48668 48667 1
54635 48669 48668 1
54636 48670 48669 1
54637 48664 48667 1
54638 48663 48670 1
54639 48672 48671 1
54640 48673 48672 1
54641 48674 48673 1
54642 48669 48671 1
54643 48668 48674 1
54644 48676 48675 1
54645 48677 48676 1
54646 48678 48677 1
54647 48673 48675 1
54648 48672 48678 1
54649 48680 48679 1
54650 48681 48680 1
54651 48671 48681 2
54652 48678 48679 1
54653 48683 48682 1
54654 48684 48683 1
54655 48685 48684 1
54656 48677 48682 1
54657 48676 48685 1
54658 48687 48686 1
54659 48688 48687 1
54660 48674 48686 1
54661 48675 48688 1
54662 48690 48689 2
54663 48691 48690 1
54664 48692 48691 1
54665 48687 48689 1
54666 48686 48692 2
54667 48694 48693 1
54668 48695 48694 1
54669 48696 48695 2
54670 48690 48693 1
54671 48689 48696 1
54672 48698 48697 1
54673 48699 48698 1
54674 48700 48699 1
54675 48696 48697 1
54676 48695 48700 1
54677 48702 48701 1
54678 48688 48702 1
54679 48685 48701 1
54680 48704 48703 1
54681 48705 48704 1
54682 48701 48705 1
54683 48684 48703 1
54684 48707 48706 1
54685 48708 48707 1
54686 48709 48708 1
54687 48704 48706 1
54688 48703 48709 1
54689 48711 48710 1
54690 48712 48711 1
54691 48713 48712 1
54692 48708 48710 1
54693 48707 48713 1
54694 48715 48714 1
54695 48716 48715 1
54696 48717 48716 1
54697 48712 48714 1
54698 48711 48717 1
54699 48719 48718 1
54700 48683 48719 1
54701 48709 48718 1
54702 48721 48720 1
54703 48718 48721 1
54704 48710 48720 1
54705 48723 48722 1
54706 48720 48723 1
54707 48717 48722 1
54708 48725 48724 1
54709 48726 48725 1
54710 48722 48726 1
54711 48716 48724 1
54712 48728 48727 1
54713 48729 48728 1
54714 48730 48729 1
54715 48715 48727 1
54716 48714 48730 1
54717 48732 48731 1
54718 48733 48732 1
54719 48734 48733 1
54720 48729 48731 1
54721 48728 48734 1
54722 48736 48735 1
54723 48737 48736 1
54724 48738 48737 1
54725 48734 48735 1
54726 48733 48738 1
54727 48740 48739 1
54728 48741 48740 1
54729 48723 48741 1
54730 48721 48739 1
54731 48743 48742 1
54732 48744 48743 1
54733 48745 48744 1
54734 48740 48742 1
54735 48739 48745 1
54736 48747 48746 1
54737 48748 48747 1
54738 48749 48748 1
54739 48744 48746 1
54740 48743 48749 1
54741 48751 48750 1
54742 48741 48751 1
54743 48726 48750 1
54744 48753 48752 1
54745 48754 48753 1
54746 48750 48754 1
54747 48725 48752 1
54748 48756 48755 1
54749 48757 48756 1
54750 48724 48757 1
54751 48752 48755 1
54752 48759 48758 1
54753 48760 48759 1
54754 48753 48758 1
54755 48755 48760 1
54756 48762 48761 1
54757 48763 48762 1
54758 48756 48761 1
54759 48760 48763 1
54760 48765 48764 1
54761 48766 48765 1
54762 48767 48766 1
54763 48762 48764 1
54764 48761 48767 1
54765 48769 48768 1
54766 48770 48769 1
54767 48759 48770 1
54768 48763 48768 1
54769 48764 48771 1
54770 48768 48772 1
54771 48771 48772 1
54772 48698 48773 1
54773 48773 48774 1
54774 48773 48775 1
54775 48730 48776 1
54776 48778 48777 1
54777 48779 48778 1
54778 48780 48779 1
54779 48770 48777 1
54780 48769 48780 1
54781 48782 48781 1
54782 48783 48782 1
54783 48784 48783 1
54784 48780 48781 1
54785 48779 48784 1
54786 48786 48785 1
54787 48787 48786 1
54788 48788 48787 1
54789 48783 48785 1
54790 48782 48788 1
54791 48790 48789 1
54792 48791 48790 1
54793 48781 48791 1
54794 48788 48789 1
54795 48793 48792 1
54796 48794 48793 1
54797 48787 48794 1
54798 48789 48792 1
54799 48796 48795 1
54800 48790 48796 1
54801 48772 48791 1
54802 48771 48795 1
54803 48798 48797 1
54804 48796 48798 1
54805 48792 48797 1
54806 48800 48799 1
54807 48801 48800 1
54808 48802 48801 1
54809 48798 48799 1
54810 48797 48802 1
54811 48802 48803 2
54812 48657 48804 1
54813 48657 48805 1
54814 48658 48806 1
54815 48658 48807 1
54816 48659 48808 1
54817 48660 48809 1
54818 48661 48810 1
54819 48661 48811 1
54820 48663 48812 1
54821 48664 48813 1
54822 48665 48814 1
54823 48665 48815 1
54824 48666 48816 1
54825 48666 48817 1
54826 48668 48818 1
54827 48669 48819 1
54828 48670 48820 1
54829 48670 48821 1
54830 48674 48822 1
54831 48679 48823 1
54832 48679 48824 1
54833 48680 48825 1
54834 48680 48826 1
54835 48681 48827 1
54836 48691 48829 1
54837 48691 48830 1
54838 48692 48831 1
54839 48693 48832 1
54840 48693 48833 1
54841 48694 48834 1
54842 48694 48835 1
54843 48697 48836 1
54844 48697 48837 1
54845 48698 48838 1
54846 48699 48839 1
54847 48699 48840 1
54848 48700 48841 1
54849 48700 48842 1
54850 48702 48843 1
54851 48706 48844 1
54852 48713 48845 1
54853 48719 48846 1
54854 48728 48847 1
54855 48729 48848 1
54856 48730 48849 1
54857 48731 48850 1
54858 48731 48851 1
54859 48732 48852 1
54860 48732 48853 1
54861 48733 48854 1
54862 48734 48855 1
54863 48735 48856 1
54864 48735 48857 1
54865 48736 48858 1
54866 48736 48859 1
54867 48737 48860 1
54868 48737 48861 1
54869 48738 48862 1
54870 48743 48863 1
54871 48744 48864 1
54872 48746 48865 1
54873 48746 48866 1
54874 48747 48867 1
54875 48747 48868 1
54876 48748 48869 1
54877 48748 48870 1
54878 48749 48871 1
54879 48749 48872 1
54880 48751 48873 1
54881 48754 48874 1
54882 48757 48875 1
54883 48761 48876 1
54884 48762 48877 1
54885 48764 48878 1
54886 48765 48879 1
54887 48765 48880 1
54888 48766 48881 1
54889 48766 48882 1
54890 48767 48883 1
54891 48767 48884 1
54892 48773 48885 1
54893 48774 48886 1
54894 48774 48887 1
54895 48774 48888 1
54896 48775 48889 1
54897 48775 48890 1
54898 48775 48891 1
54899 48776 48892 1
54900 48777 48893 1
54901 48778 48894 1
54902 48784 48895 1
54903 48785 48896 1
54904 48786 48897 1
54905 48793 48898 1
54906 48794 48899 1
54907 48795 48900 1
54908 48799 48901 1
54909 48799 48902 1
54910 48800 48903 1
54911 48800 48904 1
54912 48801 48905 1
54913 48801 48906 1
54914 48687 48828 1
54915 48909 48908 1
54916 48910 48909 1
54917 48911 48910 1
54918 48912 48911 1
54919 48907 48908 1
54920 48907 48912 1
54921 48914 48913 1
54922 48915 48914 1
54923 48916 48915 1
54924 48910 48913 1
54925 48909 48916 1
54926 48918 48917 1
54927 48919 48918 1
54928 48920 48919 1
54929 48914 48917 1
54930 48913 48920 1
54931 48922 48921 1
54932 48923 48922 1
54933 48924 48923 1
54934 48919 48921 1
54935 48918 48924 1
54936 48926 48925 1
54937 48927 48926 1
54938 48928 48927 1
54939 48923 48925 1
54940 48922 48928 1
54941 48930 48929 1
54942 48931 48930 1
54943 48921 48931 2
54944 48928 48929 1
54945 48933 48932 1
54946 48934 48933 1
54947 48935 48934 1
54948 48927 48932 1
54949 48926 48935 1
54950 48937 48936 1
54951 48938 48937 1
54952 48924 48936 1
54953 48925 48938 1
54954 48940 48939 2
54955 48941 48940 1
54956 48942 48941 1
54957 48937 48939 1
54958 48936 48942 2
54959 48944 48943 1
54960 48945 48944 1
54961 48946 48945 2
54962 48940 48943 1
54963 48939 48946 1
54964 48948 48947 1
54965 48949 48948 1
54966 48950 48949 1
54967 48946 48947 1
54968 48945 48950 1
54969 48952 48951 1
54970 48938 48952 1
54971 48935 48951 1
54972 48954 48953 1
54973 48955 48954 1
54974 48951 48955 1
54975 48934 48953 1
54976 48957 48956 1
54977 48958 48957 1
54978 48959 48958 1
54979 48954 48956 1
54980 48953 48959 1
54981 48961 48960 1
54982 48962 48961 1
54983 48963 48962 1
54984 48958 48960 1
54985 48957 48963 1
54986 48965 48964 1
54987 48966 48965 1
54988 48967 48966 1
54989 48962 48964 1
54990 48961 48967 1
54991 48969 48968 1
54992 48933 48969 1
54993 48959 48968 1
54994 48971 48970 1
54995 48968 48971 1
54996 48960 48970 1
54997 48973 48972 1
54998 48970 48973 1
54999 48967 48972 1
55000 48975 48974 1
55001 48976 48975 1
55002 48972 48976 1
55003 48966 48974 1
55004 48978 48977 1
55005 48979 48978 1
55006 48980 48979 1
55007 48965 48977 1
55008 48964 48980 1
55009 48982 48981 1
55010 48983 48982 1
55011 48984 48983 1
55012 48979 48981 1
55013 48978 48984 1
55014 48986 48985 1
55015 48987 48986 1
55016 48988 48987 1
55017 48984 48985 1
55018 48983 48988 1
55019 48990 48989 1
55020 48991 48990 1
55021 48973 48991 1
55022 48971 48989 1
55023 48993 48992 1
55024 48994 48993 1
55025 48995 48994 1
55026 48990 48992 1
55027 48989 48995 1
55028 48997 48996 1
55029 48998 48997 1
55030 48999 48998 1
55031 48994 48996 1
55032 48993 48999 1
55033 49001 49000 1
55034 48991 49001 1
55035 48976 49000 1
55036 49003 49002 1
55037 49004 49003 1
55038 49000 49004 1
55039 48975 49002 1
55040 49006 49005 1
55041 49007 49006 1
55042 48974 49007 1
55043 49002 49005 1
55044 49009 49008 1
55045 49010 49009 1
55046 49003 49008 1
55047 49005 49010 1
55048 49012 49011 1
55049 49013 49012 1
55050 49006 49011 1
55051 49010 49013 1
55052 49015 49014 1
55053 49016 49015 1
55054 49017 49016 1
55055 49012 49014 1
55056 49011 49017 1
55057 49019 49018 1
55058 49020 49019 1
55059 49009 49020 1
55060 49013 49018 1
55061 49014 49021 1
55062 49018 49022 1
55063 49021 49022 1
55064 48948 49023 1
55065 49023 49024 1
55066 49023 49025 1
55067 48980 49026 1
55068 49028 49027 1
55069 49029 49028 1
55070 49030 49029 1
55071 49020 49027 1
55072 49019 49030 1
55073 49032 49031 1
55074 49033 49032 1
55075 49034 49033 1
55076 49030 49031 1
55077 49029 49034 1
55078 49036 49035 1
55079 49037 49036 1
55080 49038 49037 1
55081 49033 49035 1
55082 49032 49038 1
55083 49040 49039 1
55084 49041 49040 1
55085 49031 49041 1
55086 49038 49039 1
55087 49043 49042 1
55088 49044 49043 1
55089 49037 49044 1
55090 49039 49042 1
55091 49046 49045 1
55092 49040 49046 1
55093 49022 49041 1
55094 49021 49045 1
55095 49048 49047 1
55096 49046 49048 1
55097 49042 49047 1
55098 49050 49049 1
55099 49051 49050 1
55100 49052 49051 1
55101 49048 49049 1
55102 49047 49052 1
55103 49052 49053 2
55104 48907 49054 1
55105 48907 49055 1
55106 48908 49056 1
55107 48908 49057 1
55108 48909 49058 1
55109 48910 49059 1
55110 48911 49060 1
55111 48911 49061 1
55112 48913 49062 1
55113 48914 49063 1
55114 48915 49064 1
55115 48915 49065 1
55116 48916 49066 1
55117 48916 49067 1
55118 48918 49068 1
55119 48919 49069 1
55120 48920 49070 1
55121 48920 49071 1
55122 48924 49072 1
55123 48929 49073 1
55124 48929 49074 1
55125 48930 49075 1
55126 48930 49076 1
55127 48931 49077 1
55128 48941 49079 1
55129 48941 49080 1
55130 48942 49081 1
55131 48943 49082 1
55132 48943 49083 1
55133 48944 49084 1
55134 48944 49085 1
55135 48947 49086 1
55136 48947 49087 1
55137 48948 49088 1
55138 48949 49089 1
55139 48949 49090 1
55140 48950 49091 1
55141 48950 49092 1
55142 48952 49093 1
55143 48956 49094 1
55144 48963 49095 1
55145 48969 49096 1
55146 48978 49097 1
55147 48979 49098 1
55148 48980 49099 1
55149 48981 49100 1
55150 48981 49101 1
55151 48982 49102 1
55152 48982 49103 1
55153 48983 49104 1
55154 48984 49105 1
55155 48985 49106 1
55156 48985 49107 1
55157 48986 49108 1
55158 48986 49109 1
55159 48987 49110 1
55160 48987 49111 1
55161 48988 49112 1
55162 48993 49113 1
55163 48994 49114 1
55164 48996 49115 1
55165 48996 49116 1
55166 48997 49117 1
55167 48997 49118 1
55168 48998 49119 1
55169 48998 49120 1
55170 48999 49121 1
55171 48999 49122 1
55172 49001 49123 1
55173 49004 49124 1
55174 49007 49125 1
55175 49011 49126 1
55176 49012 49127 1
55177 49014 49128 1
55178 49015 49129 1
55179 49015 49130 1
55180 49016 49131 1
55181 49016 49132 1
55182 49017 49133 1
55183 49017 49134 1
55184 49023 49135 1
55185 49024 49136 1
55186 49024 49137 1
55187 49024 49138 1
55188 49025 49139 1
55189 49025 49140 1
55190 49025 49141 1
55191 49026 49142 1
55192 49027 49143 1
55193 49028 49144 1
55194 49034 49145 1
55195 49035 49146 1
55196 49036 49147 1
55197 49043 49148 1
55198 49044 49149 1
55199 49045 49150 1
55200 49049 49151 1
55201 49049 49152 1
55202 49050 49153 1
55203 49050 49154 1
55204 49051 49155 1
55205 49051 49156 1
55206 48937 49078 1
55207 49159 49158 1
55208 49160 49159 1
55209 49161 49160 1
55210 49162 49161 1
55211 49157 49158 1
55212 49157 49162 1
55213 49164 49163 1
55214 49165 49164 1
55215 49166 49165 1
55216 49160 49163 1
55217 49159 49166 1
55218 49168 49167 1
55219 49169 49168 1
55220 49170 49169 1
55221 49164 49167 1
55222 49163 49170 1
55223 49172 49171 1
55224 49173 49172 1
55225 49174 49173 1
55226 49169 49171 1
55227 49168 49174 1
55228 49176 49175 1
55229 49177 49176 1
55230 49178 49177 1
55231 49173 49175 1
55232 49172 49178 1
55233 49180 49179 1
55234 49181 49180 1
55235 49171 49181 2
55236 49178 49179 1
55237 49183 49182 1
55238 49184 49183 1
55239 49185 49184 1
55240 49177 49182 1
55241 49176 49185 1
55242 49187 49186 1
55243 49188 49187 1
55244 49174 49186 1
55245 49175 49188 1
55246 49190 49189 2
55247 49191 49190 1
55248 49192 49191 1
55249 49187 49189 1
55250 49186 49192 2
55251 49194 49193 1
55252 49195 49194 1
55253 49196 49195 2
55254 49190 49193 1
55255 49189 49196 1
55256 49198 49197 1
55257 49199 49198 1
55258 49200 49199 1
55259 49196 49197 1
55260 49195 49200 1
55261 49202 49201 1
55262 49188 49202 1
55263 49185 49201 1
55264 49204 49203 1
55265 49205 49204 1
55266 49201 49205 1
55267 49184 49203 1
55268 49207 49206 1
55269 49208 49207 1
55270 49209 49208 1
55271 49204 49206 1
55272 49203 49209 1
55273 49211 49210 1
55274 49212 49211 1
55275 49213 49212 1
55276 49208 49210 1
55277 49207 49213 1
55278 49215 49214 1
55279 49216 49215 1
55280 49217 49216 1
55281 49212 49214 1
55282 49211 49217 1
55283 49219 49218 1
55284 49183 49219 1
55285 49209 49218 1
55286 49221 49220 1
55287 49218 49221 1
55288 49210 49220 1
55289 49223 49222 1
55290 49220 49223 1
55291 49217 49222 1
55292 49225 49224 1
55293 49226 49225 1
55294 49222 49226 1
55295 49216 49224 1
55296 49228 49227 1
55297 49229 49228 1
55298 49230 49229 1
55299 49215 49227 1
55300 49214 49230 1
55301 49232 49231 1
55302 49233 49232 1
55303 49234 49233 1
55304 49229 49231 1
55305 49228 49234 1
55306 49236 49235 1
55307 49237 49236 1
55308 49238 49237 1
55309 49234 49235 1
55310 49233 49238 1
55311 49240 49239 1
55312 49241 49240 1
55313 49223 49241 1
55314 49221 49239 1
55315 49243 49242 1
55316 49244 49243 1
55317 49245 49244 1
55318 49240 49242 1
55319 49239 49245 1
55320 49247 49246 1
55321 49248 49247 1
55322 49249 49248 1
55323 49244 49246 1
55324 49243 49249 1
55325 49251 49250 1
55326 49241 49251 1
55327 49226 49250 1
55328 49253 49252 1
55329 49254 49253 1
55330 49250 49254 1
55331 49225 49252 1
55332 49256 49255 1
55333 49257 49256 1
55334 49224 49257 1
55335 49252 49255 1
55336 49259 49258 1
55337 49260 49259 1
55338 49253 49258 1
55339 49255 49260 1
55340 49262 49261 1
55341 49263 49262 1
55342 49256 49261 1
55343 49260 49263 1
55344 49265 49264 1
55345 49266 49265 1
55346 49267 49266 1
55347 49262 49264 1
55348 49261 49267 1
55349 49269 49268 1
55350 49270 49269 1
55351 49259 49270 1
55352 49263 49268 1
55353 49264 49271 1
55354 49268 49272 1
55355 49271 49272 1
55356 49198 49273 1
55357 49273 49274 1
55358 49273 49275 1
55359 49230 49276 1
55360 49278 49277 1
55361 49279 49278 1
55362 49280 49279 1
55363 49270 49277 1
55364 49269 49280 1
55365 49282 49281 1
55366 49283 49282 1
55367 49284 49283 1
55368 49280 49281 1
55369 49279 49284 1
55370 49286 49285 1
55371 49287 49286 1
55372 49288 49287 1
55373 49283 49285 1
55374 49282 49288 1
55375 49290 49289 1
55376 49291 49290 1
55377 49281 49291 1
55378 49288 49289 1
55379 49293 49292 1
55380 49294 49293 1
55381 49287 49294 1
55382 49289 49292 1
55383 49296 49295 1
55384 49290 49296 1
55385 49272 49291 1
55386 49271 49295 1
55387 49298 49297 1
55388 49296 49298 1
55389 49292 49297 1
55390 49300 49299 1
55391 49301 49300 1
55392 49302 49301 1
55393 49298 49299 1
55394 49297 49302 1
55395 49302 49303 2
55396 49157 49304 1
55397 49157 49305 1
55398 49158 49306 1
55399 49158 49307 1
55400 49159 49308 1
55401 49160 49309 1
55402 49161 49310 1
55403 49161 49311 1
55404 49163 49312 1
55405 49164 49313 1
55406 49165 49314 1
55407 49165 49315 1
55408 49166 49316 1
55409 49166 49317 1
55410 49168 49318 1
55411 49169 49319 1
55412 49170 49320 1
55413 49170 49321 1
55414 49174 49322 1
55415 49179 49323 1
55416 49179 49324 1
55417 49180 49325 1
55418 49180 49326 1
55419 49181 49327 1
55420 49191 49329 1
55421 49191 49330 1
55422 49192 49331 1
55423 49193 49332 1
55424 49193 49333 1
55425 49194 49334 1
55426 49194 49335 1
55427 49197 49336 1
55428 49197 49337 1
55429 49198 49338 1
55430 49199 49339 1
55431 49199 49340 1
55432 49200 49341 1
55433 49200 49342 1
55434 49202 49343 1
55435 49206 49344 1
55436 49213 49345 1
55437 49219 49346 1
55438 49228 49347 1
55439 49229 49348 1
55440 49230 49349 1
55441 49231 49350 1
55442 49231 49351 1
55443 49232 49352 1
55444 49232 49353 1
55445 49233 49354 1
55446 49234 49355 1
55447 49235 49356 1
55448 49235 49357 1
55449 49236 49358 1
55450 49236 49359 1
55451 49237 49360 1
55452 49237 49361 1
55453 49238 49362 1
55454 49243 49363 1
55455 49244 49364 1
55456 49246 49365 1
55457 49246 49366 1
55458 49247 49367 1
55459 49247 49368 1
55460 49248 49369 1
55461 49248 49370 1
55462 49249 49371 1
55463 49249 49372 1
55464 49251 49373 1
55465 49254 49374 1
55466 49257 49375 1
55467 49261 49376 1
55468 49262 49377 1
55469 49264 49378 1
55470 49265 49379 1
55471 49265 49380 1
55472 49266 49381 1
55473 49266 49382 1
55474 49267 49383 1
55475 49267 49384 1
55476 49273 49385 1
55477 49274 49386 1
55478 49274 49387 1
55479 49274 49388 1
55480 49275 49389 1
55481 49275 49390 1
55482 49275 49391 1
55483 49276 49392 1
55484 49277 49393 1
55485 49278 49394 1
55486 49284 49395 1
55487 49285 49396 1
55488 49286 49397 1
55489 49293 49398 1
55490 49294 49399 1
55491 49295 49400 1
55492 49299 49401 1
55493 49299 49402 1
55494 49300 49403 1
55495 49300 49404 1
55496 49301 49405 1
55497 49301 49406 1
55498 49187 49328 1
55499 49409 49408 1
55500 49410 49409 1
55501 49411 49410 1
55502 49412 49411 1
55503 49407 49408 1
55504 49407 49412 1
55505 49414 49413 1
55506 49415 49414 1
55507 49416 49415 1
55508 49410 49413 1
55509 49409 49416 1
55510 49418 49417 1
55511 49419 49418 1
55512 49420 49419 1
55513 49414 49417 1
55514 49413 49420 1
55515 49422 49421 1
55516 49423 49422 1
55517 49424 49423 1
55518 49419 49421 1
55519 49418 49424 1
55520 49426 49425 1
55521 49427 49426 1
55522 49428 49427 1
55523 49423 49425 1
55524 49422 49428 1
55525 49430 49429 1
55526 49431 49430 1
55527 49421 49431 2
55528 49428 49429 1
55529 49433 49432 1
55530 49434 49433 1
55531 49435 49434 1
55532 49427 49432 1
55533 49426 49435 1
55534 49437 49436 1
55535 49438 49437 1
55536 49424 49436 1
55537 49425 49438 1
55538 49440 49439 2
55539 49441 49440 1
55540 49442 49441 1
55541 49437 49439 1
55542 49436 49442 2
55543 49444 49443 1
55544 49445 49444 1
55545 49446 49445 2
55546 49440 49443 1
55547 49439 49446 1
55548 49448 49447 1
55549 49449 49448 1
55550 49450 49449 1
55551 49446 49447 1
55552 49445 49450 1
55553 49452 49451 1
55554 49438 49452 1
55555 49435 49451 1
55556 49454 49453 1
55557 49455 49454 1
55558 49451 49455 1
55559 49434 49453 1
55560 49457 49456 1
55561 49458 49457 1
55562 49459 49458 1
55563 49454 49456 1
55564 49453 49459 1
55565 49461 49460 1
55566 49462 49461 1
55567 49463 49462 1
55568 49458 49460 1
55569 49457 49463 1
55570 49465 49464 1
55571 49466 49465 1
55572 49467 49466 1
55573 49462 49464 1
55574 49461 49467 1
55575 49469 49468 1
55576 49433 49469 1
55577 49459 49468 1
55578 49471 49470 1
55579 49468 49471 1
55580 49460 49470 1
55581 49473 49472 1
55582 49470 49473 1
55583 49467 49472 1
55584 49475 49474 1
55585 49476 49475 1
55586 49472 49476 1
55587 49466 49474 1
55588 49478 49477 1
55589 49479 49478 1
55590 49480 49479 1
55591 49465 49477 1
55592 49464 49480 1
55593 49482 49481 1
55594 49483 49482 1
55595 49484 49483 1
55596 49479 49481 1
55597 49478 49484 1
55598 49486 49485 1
55599 49487 49486 1
55600 49488 49487 1
55601 49484 49485 1
55602 49483 49488 1
55603 49490 49489 1
55604 49491 49490 1
55605 49473 49491 1
55606 49471 49489 1
55607 49493 49492 1
55608 49494 49493 1
55609 49495 49494 1
55610 49490 49492 1
55611 49489 49495 1
55612 49497 49496 1
55613 49498 49497 1
55614 49499 49498 1
55615 49494 49496 1
55616 49493 49499 1
55617 49501 49500 1
55618 49491 49501 1
55619 49476 49500 1
55620 49503 49502 1
55621 49504 49503 1
55622 49500 49504 1
55623 49475 49502 1
55624 49506 49505 1
55625 49507 49506 1
55626 49474 49507 1
55627 49502 49505 1
55628 49509 49508 1
55629 49510 49509 1
55630 49503 49508 1
55631 49505 49510 1
55632 49512 49511 1
55633 49513 49512 1
55634 49506 49511 1
55635 49510 49513 1
55636 49515 49514 1
55637 49516 49515 1
55638 49517 49516 1
55639 49512 49514 1
55640 49511 49517 1
55641 49519 49518 1
55642 49520 49519 1
55643 49509 49520 1
55644 49513 49518 1
55645 49514 49521 1
55646 49518 49522 1
55647 49521 49522 1
55648 49448 49523 1
55649 49523 49524 1
55650 49523 49525 1
55651 49480 49526 1
55652 49528 49527 1
55653 49529 49528 1
55654 49530 49529 1
55655 49520 49527 1
55656 49519 49530 1
55657 49532 49531 1
55658 49533 49532 1
55659 49534 49533 1
55660 49530 49531 1
55661 49529 49534 1
55662 49536 49535 1
55663 49537 49536 1
55664 49538 49537 1
55665 49533 49535 1
55666 49532 49538 1
55667 49540 49539 1
55668 49541 49540 1
55669 49531 49541 1
55670 49538 49539 1
55671 49543 49542 1
55672 49544 49543 1
55673 49537 49544 1
55674 49539 49542 1
55675 49546 49545 1
55676 49540 49546 1
55677 49522 49541 1
55678 49521 49545 1
55679 49548 49547 1
55680 49546 49548 1
55681 49542 49547 1
55682 49550 49549 1
55683 49551 49550 1
55684 49552 49551 1
55685 49548 49549 1
55686 49547 49552 1
55687 49552 49553 2
55688 49407 49554 1
55689 49407 49555 1
55690 49408 49556 1
55691 49408 49557 1
55692 49409 49558 1
55693 49410 49559 1
55694 49411 49560 1
55695 49411 49561 1
55696 49413 49562 1
55697 49414 49563 1
55698 49415 49564 1
55699 49415 49565 1
55700 49416 49566 1
55701 49416 49567 1
55702 49418 49568 1
55703 49419 49569 1
55704 49420 49570 1
55705 49420 49571 1
55706 49424 49572 1
55707 49429 49573 1
55708 49429 49574 1
55709 49430 49575 1
55710 49430 49576 1
55711 49431 49577 1
55712 49441 49579 1
55713 49441 49580 1
55714 49442 49581 1
55715 49443 49582 1
55716 49443 49583 1
55717 49444 49584 1
55718 49444 49585 1
55719 49447 49586 1
55720 49447 49587 1
55721 49448 49588 1
55722 49449 49589 1
55723 49449 49590 1
55724 49450 49591 1
55725 49450 49592 1
55726 49452 49593 1
55727 49456 49594 1
55728 49463 49595 1
55729 49469 49596 1
55730 49478 49597 1
55731 49479 49598 1
55732 49480 49599 1
55733 49481 49600 1
55734 49481 49601 1
55735 49482 49602 1
55736 49482 49603 1
55737 49483 49604 1
55738 49484 49605 1
55739 49485 49606 1
55740 49485 49607 1
55741 49486 49608 1
55742 49486 49609 1
55743 49487 49610 1
55744 49487 49611 1
55745 49488 49612 1
55746 49493 49613 1
55747 49494 49614 1
55748 49496 49615 1
55749 49496 49616 1
55750 49497 49617 1
55751 49497 49618 1
55752 49498 49619 1
55753 49498 49620 1
55754 49499 49621 1
55755 49499 49622 1
55756 49501 49623 1
55757 49504 49624 1
55758 49507 49625 1
55759 49511 49626 1
55760 49512 49627 1
55761 49514 49628 1
55762 49515 49629 1
55763 49515 49630 1
55764 49516 49631 1
55765 49516 49632 1
55766 49517 49633 1
55767 49517 49634 1
55768 49523 49635 1
55769 49524 49636 1
55770 49524 49637 1
55771 49524 49638 1
55772 49525 49639 1
55773 49525 49640 1
55774 49525 49641 1
55775 49526 49642 1
55776 49527 49643 1
55777 49528 49644 1
55778 49534 49645 1
55779 49535 49646 1
55780 49536 49647 1
55781 49543 49648 1
55782 49544 49649 1
55783 49545 49650 1
55784 49549 49651 1
55785 49549 49652 1
55786 49550 49653 1
55787 49550 49654 1
55788 49551 49655 1
55789 49551 49656 1
55790 49437 49578 1
55791 49659 49658 1
55792 49660 49659 1
55793 49661 49660 1
55794 49662 49661 1
55795 49657 49658 1
55796 49657 49662 1
55797 49664 49663 1
55798 49665 49664 1
55799 49666 49665 1
55800 49660 49663 1
55801 49659 49666 1
55802 49668 49667 1
55803 49669 49668 1
55804 49670 49669 1
55805 49664 49667 1
55806 49663 49670 1
55807 49672 49671 1
55808 49673 49672 1
55809 49674 49673 1
55810 49669 49671 1
55811 49668 49674 1
55812 49676 49675 1
55813 49677 49676 1
55814 49678 49677 1
55815 49673 49675 1
55816 49672 49678 1
55817 49680 49679 1
55818 49681 49680 1
55819 49671 49681 2
55820 49678 49679 1
55821 49683 49682 1
55822 49684 49683 1
55823 49685 49684 1
55824 49677 49682 1
55825 49676 49685 1
55826 49687 49686 1
55827 49688 49687 1
55828 49674 49686 1
55829 49675 49688 1
55830 49690 49689 2
55831 49691 49690 1
55832 49692 49691 1
55833 49687 49689 1
55834 49686 49692 2
55835 49694 49693 1
55836 49695 49694 1
55837 49696 49695 2
55838 49690 49693 1
55839 49689 49696 1
55840 49698 49697 1
55841 49699 49698 1
55842 49700 49699 1
55843 49696 49697 1
55844 49695 49700 1
55845 49702 49701 1
55846 49688 49702 1
55847 49685 49701 1
55848 49704 49703 1
55849 49705 49704 1
55850 49701 49705 1
55851 49684 49703 1
55852 49707 49706 1
55853 49708 49707 1
55854 49709 49708 1
55855 49704 49706 1
55856 49703 49709 1
55857 49711 49710 1
55858 49712 49711 1
55859 49713 49712 1
55860 49708 49710 1
55861 49707 49713 1
55862 49715 49714 1
55863 49716 49715 1
55864 49717 49716 1
55865 49712 49714 1
55866 49711 49717 1
55867 49719 49718 1
55868 49683 49719 1
55869 49709 49718 1
55870 49721 49720 1
55871 49718 49721 1
55872 49710 49720 1
55873 49723 49722 1
55874 49720 49723 1
55875 49717 49722 1
55876 49725 49724 1
55877 49726 49725 1
55878 49722 49726 1
55879 49716 49724 1
55880 49728 49727 1
55881 49729 49728 1
55882 49730 49729 1
55883 49715 49727 1
55884 49714 49730 1
55885 49732 49731 1
55886 49733 49732 1
55887 49734 49733 1
55888 49729 49731 1
55889 49728 49734 1
55890 49736 49735 1
55891 49737 49736 1
55892 49738 49737 1
55893 49734 49735 1
55894 49733 49738 1
55895 49740 49739 1
55896 49741 49740 1
55897 49723 49741 1
55898 49721 49739 1
55899 49743 49742 1
55900 49744 49743 1
55901 49745 49744 1
55902 49740 49742 1
55903 49739 49745 1
55904 49747 49746 1
55905 49748 49747 1
55906 49749 49748 1
55907 49744 49746 1
55908 49743 49749 1
55909 49751 49750 1
55910 49741 49751 1
55911 49726 49750 1
55912 49753 49752 1
55913 49754 49753 1
55914 49750 49754 1
55915 49725 49752 1
55916 49756 49755 1
55917 49757 49756 1
55918 49724 49757 1
55919 49752 49755 1
55920 49759 49758 1
55921 49760 49759 1
55922 49753 49758 1
55923 49755 49760 1
55924 49762 49761 1
55925 49763 49762 1
55926 49756 49761 1
55927 49760 49763 1
55928 49765 49764 1
55929 49766 49765 1
55930 49767 49766 1
55931 49762 49764 1
55932 49761 49767 1
55933 49769 49768 1
55934 49770 49769 1
55935 49759 49770 1
55936 49763 49768 1
55937 49764 49771 1
55938 49768 49772 1
55939 49771 49772 1
55940 49698 49773 1
55941 49773 49774 1
55942 49773 49775 1
55943 49730 49776 1
55944 49778 49777 1
55945 49779 49778 1
55946 49780 49779 1
55947 49770 49777 1
55948 49769 49780 1
55949 49782 49781 1
55950 49783 49782 1
55951 49784 49783 1
55952 49780 49781 1
55953 49779 49784 1
55954 49786 49785 1
55955 49787 49786 1
55956 49788 49787 1
55957 49783 49785 1
55958 49782 49788 1
55959 49790 49789 1
55960 49791 49790 1
55961 49781 49791 1
55962 49788 49789 1
55963 49793 49792 1
55964 49794 49793 1
55965 49787 49794 1
55966 49789 49792 1
55967 49796 49795 1
55968 49790 49796 1
55969 49772 49791 1
55970 49771 49795 1
55971 49798 49797 1
55972 49796 49798 1
55973 49792 49797 1
55974 49800 49799 1
55975 49801 49800 1
55976 49802 49801 1
55977 49798 49799 1
55978 49797 49802 1
55979 49802 49803 2
55980 49657 49804 1
55981 49657 49805 1
55982 49658 49806 1
55983 49658 49807 1
55984 49659 49808 1
55985 49660 49809 1
55986 49661 49810 1
55987 49661 49811 1
55988 49663 49812 1
55989 49664 49813 1
55990 49665 49814 1
55991 49665 49815 1
55992 49666 49816 1
55993 49666 49817 1
55994 49668 49818 1
55995 49669 49819 1
55996 49670 49820 1
55997 49670 49821 1
55998 49674 49822 1
55999 49679 49823 1
56000 49679 49824 1
56001 49680 49825 1
56002 49680 49826 1
56003 49681 49827 1
56004 49691 49829 1
56005 49691 49830 1
56006 49692 49831 1
56007 49693 49832 1
56008 49693 49833 1
56009 49694 49834 1
56010 49694 49835 1
56011 49697 49836 1
56012 49697 49837 1
56013 49698 49838 1
56014 49699 49839 1
56015 49699 49840 1
56016 49700 49841 1
56017 49700 49842 1
56018 49702 49843 1
56019 49706 49844 1
56020 49713 49845 1
56021 49719 49846 1
56022 49728 49847 1
56023 49729 49848 1
56024 49730 49849 1
56025 49731 49850 1
56026 49731 49851 1
56027 49732 49852 1
56028 49732 49853 1
56029 49733 49854 1
56030 49734 49855 1
56031 49735 49856 1
56032 49735 49857 1
56033 49736 49858 1
56034 49736 49859 1
56035 49737 49860 1
56036 49737 49861 1
56037 49738 49862 1
56038 49743 49863 1
56039 49744 49864 1
56040 49746 49865 1
56041 49746 49866 1
56042 49747 49867 1
56043 49747 49868 1
56044 49748 49869 1
56045 49748 49870 1
56046 49749 49871 1
56047 49749 49872 1
56048 49751 49873 1
56049 49754 49874 1
56050 49757 49875 1
56051 49761 49876 1
56052 49762 49877 1
56053 49764 49878 1
56054 49765 49879 1
56055 49765 49880 1
56056 49766 49881 1
56057 49766 49882 1
56058 49767 49883 1
56059 49767 49884 1
56060 49773 49885 1
56061 49774 49886 1
56062 49774 49887 1
56063 49774 49888 1
56064 49775 49889 1
56065 49775 49890 1
56066 49775 49891 1
56067 49776 49892 1
56068 49777 49893 1
56069 49778 49894 1
56070 49784 49895 1
56071 49785 49896 1
56072 49786 49897 1
56073 49793 49898 1
56074 49794 49899 1
56075 49795 49900 1
56076 49799 49901 1
56077 49799 49902 1
56078 49800 49903 1
56079 49800 49904 1
56080 49801 49905 1
56081 49801 49906 1
56082 49687 49828 1
56083 49909 49908 1
56084 49910 49909 1
56085 49911 49910 1
56086 49912 49911 1
56087 49907 49908 1
56088 49907 49912 1
56089 49914 49913 1
56090 49915 49914 1
56091 49916 49915 1
56092 49910 49913 1
56093 49909 49916 1
56094 49918 49917 1
56095 49919 49918 1
56096 49920 49919 1
56097 49914 49917 1
56098 49913 49920 1
56099 49922 49921 1
56100 49923 49922 1
56101 49924 49923 1
56102 49919 49921 1
56103 49918 49924 1
56104 49926 49925 1
56105 49927 49926 1
56106 49928 49927 1
56107 49923 49925 1
56108 49922 49928 1
56109 49930 49929 1
56110 49931 49930 1
56111 49921 49931 2
56112 49928 49929 1
56113 49933 49932 1
56114 49934 49933 1
56115 49935 49934 1
56116 49927 49932 1
56117 49926 49935 1
56118 49937 49936 1
56119 49938 49937 1
56120 49924 49936 1
56121 49925 49938 1
56122 49940 49939 2
56123 49941 49940 1
56124 49942 49941 1
56125 49937 49939 1
56126 49936 49942 2
56127 49944 49943 1
56128 49945 49944 1
56129 49946 49945 2
56130 49940 49943 1
56131 49939 49946 1
56132 49948 49947 1
56133 49949 49948 1
56134 49950 49949 1
56135 49946 49947 1
56136 49945 49950 1
56137 49952 49951 1
56138 49938 49952 1
56139 49935 49951 1
56140 49954 49953 1
56141 49955 49954 1
56142 49951 49955 1
56143 49934 49953 1
56144 49957 49956 1
56145 49958 49957 1
56146 49959 49958 1
56147 49954 49956 1
56148 49953 49959 1
56149 49961 49960 1
56150 49962 49961 1
56151 49963 49962 1
56152 49958 49960 1
56153 49957 49963 1
56154 49965 49964 1
56155 49966 49965 1
56156 49967 49966 1
56157 49962 49964 1
56158 49961 49967 1
56159 49969 49968 1
56160 49933 49969 1
56161 49959 49968 1
56162 49971 49970 1
56163 49968 49971 1
56164 49960 49970 1
56165 49973 49972 1
56166 49970 49973 1
56167 49967 49972 1
56168 49975 49974 1
56169 49976 49975 1
56170 49972 49976 1
56171 49966 49974 1
56172 49978 49977 1
56173 49979 49978 1
56174 49980 49979 1
56175 49965 49977 1
56176 49964 49980 1
56177 49982 49981 1
56178 49983 49982 1
56179 49984 49983 1
56180 49979 49981 1
56181 49978 49984 1
56182 49986 49985 1
56183 49987 49986 1
56184 49988 49987 1
56185 49984 49985 1
56186 49983 49988 1
56187 49990 49989 1
56188 49991 49990 1
56189 49973 49991 1
56190 49971 49989 1
56191 49993 49992 1
56192 49994 49993 1
56193 49995 49994 1
56194 49990 49992 1
56195 49989 49995 1
56196 49997 49996 1
56197 49998 49997 1
56198 49999 49998 1
56199 49994 49996 1
56200 49993 49999 1
56201 50001 50000 1
56202 49991 50001 1
56203 49976 50000 1
56204 50003 50002 1
56205 50004 50003 1
56206 50000 50004 1
56207 49975 50002 1
56208 50006 50005 1
56209 50007 50006 1
56210 49974 50007 1
56211 50002 50005 1
56212 50009 50008 1
56213 50010 50009 1
56214 50003 50008 1
56215 50005 50010 1
56216 50012 50011 1
56217 50013 50012 1
56218 50006 50011 1
56219 50010 50013 1
56220 50015 50014 1
56221 50016 50015 1
56222 50017 50016 1
56223 50012 50014 1
56224 50011 50017 1
56225 50019 50018 1
56226 50020 50019 1
56227 50009 50020 1
56228 50013 50018 1
56229 50014 50021 1
56230 50018 50022 1
56231 50021 50022 1
56232 49948 50023 1
56233 50023 50024 1
56234 50023 50025 1
56235 49980 50026 1
56236 50028 50027 1
56237 50029 50028 1
56238 50030 50029 1
56239 50020 50027 1
56240 50019 50030 1
56241 50032 50031 1
56242 50033 50032 1
56243 50034 50033 1
56244 50030 50031 1
56245 50029 50034 1
56246 50036 50035 1
56247 50037 50036 1
56248 50038 50037 1
56249 50033 50035 1
56250 50032 50038 1
56251 50040 50039 1
56252 50041 50040 1
56253 50031 50041 1
56254 50038 50039 1
56255 50043 50042 1
56256 50044 50043 1
56257 50037 50044 1
56258 50039 50042 1
56259 50046 50045 1
56260 50040 50046 1
56261 50022 50041 1
56262 50021 50045 1
56263 50048 50047 1
56264 50046 50048 1
56265 50042 50047 1
56266 50050 50049 1
56267 50051 50050 1
56268 50052 50051 1
56269 50048 50049 1
56270 50047 50052 1
56271 50052 50053 2
56272 49907 50054 1
56273 49907 50055 1
56274 49908 50056 1
56275 49908 50057 1
56276 49909 50058 1
56277 49910 50059 1
56278 49911 50060 1
56279 49911 50061 1
56280 49913 50062 1
56281 49914 50063 1
56282 49915 50064 1
56283 49915 50065 1
56284 49916 50066 1
56285 49916 50067 1
56286 49918 50068 1
56287 49919 50069 1
56288 49920 50070 1
56289 49920 50071 1
56290 49924 50072 1
56291 49929 50073 1
56292 49929 50074 1
56293 49930 50075 1
56294 49930 50076 1
56295 49931 50077 1
56296 49941 50079 1
56297 49941 50080 1
56298 49942 50081 1
56299 49943 50082 1
56300 49943 50083 1
56301 49944 50084 1
56302 49944 50085 1
56303 49947 50086 1
56304 49947 50087 1
56305 49948 50088 1
56306 49949 50089 1
56307 49949 50090 1
56308 49950 50091 1
56309 49950 50092 1
56310 49952 50093 1
56311 49956 50094 1
56312 49963 50095 1
56313 49969 50096 1
56314 49978 50097 1
56315 49979 50098 1
56316 49980 50099 1
56317 49981 50100 1
56318 49981 50101 1
56319 49982 50102 1
56320 49982 50103 1
56321 49983 50104 1
56322 49984 50105 1
56323 49985 50106 1
56324 49985 50107 1
56325 49986 50108 1
56326 49986 50109 1
56327 49987 50110 1
56328 49987 50111 1
56329 49988 50112 1
56330 49993 50113 1
56331 49994 50114 1
56332 49996 50115 1
56333 49996 50116 1
56334 49997 50117 1
56335 49997 50118 1
56336 49998 50119 1
56337 49998 50120 1
56338 49999 50121 1
56339 49999 50122 1
56340 50001 50123 1
56341 50004 50124 1
56342 50007 50125 1
56343 50011 50126 1
56344 50012 50127 1
56345 50014 50128 1
56346 50015 50129 1
56347 50015 50130 1
56348 50016 50131 1
56349 50016 50132 1
56350 50017 50133 1
56351 50017 50134 1
56352 50023 50135 1
56353 50024 50136 1
56354 50024 50137 1
56355 50024 50138 1
56356 50025 50139 1
56357 50025 50140 1
56358 50025 50141 1
56359 50026 50142 1
56360 50027 50143 1
56361 50028 50144 1
56362 50034 50145 1
56363 50035 50146 1
56364 50036 50147 1
56365 50043 50148 1
56366 50044 50149 1
56367 50045 50150 1
56368 50049 50151 1
56369 50049 50152 1
56370 50050 50153 1
56371 50050 50154 1
56372 50051 50155 1
56373 50051 50156 1
56374 49937 50078 1
56375 50159 50158 1
56376 50160 50159 1
56377 50161 50160 1
56378 50162 50161 1
56379 50157 50158 1
56380 50157 50162 1
56381 50164 50163 1
56382 50165 50164 1
56383 50166 50165 1
56384 50160 50163 1
56385 50159 50166 1
56386 50168 50167 1
56387 50169 50168 1
56388 50170 50169 1
56389 50164 50167 1
56390 50163 50170 1
56391 50172 50171 1
56392 50173 50172 1
56393 50174 50173 1
56394 50169 50171 1
56395 50168 50174 1
56396 50176 50175 1
56397 50177 50176 1
56398 50178 50177 1
56399 50173 50175 1
56400 50172 50178 1
56401 50180 50179 1
56402 50181 50180 1
56403 50171 50181 2
56404 50178 50179 1
56405 50183 50182 1
56406 50184 50183 1
56407 50185 50184 1
56408 50177 50182 1
56409 50176 50185 1
56410 50187 50186 1
56411 50188 50187 1
56412 50174 50186 1
56413 50175 50188 1
56414 50190 50189 2
56415 50191 50190 1
56416 50192 50191 1
56417 50187 50189 1
56418 50186 50192 2
56419 50194 50193 1
56420 50195 50194 1
56421 50196 50195 2
56422 50190 50193 1
56423 50189 50196 1
56424 50198 50197 1
56425 50199 50198 1
56426 50200 50199 1
56427 50196 50197 1
56428 50195 50200 1
56429 50202 50201 1
56430 50188 50202 1
56431 50185 50201 1
56432 50204 50203 1
56433 50205 50204 1
56434 50201 50205 1
56435 50184 50203 1
56436 50207 50206 1
56437 50208 50207 1
56438 50209 50208 1
56439 50204 50206 1
56440 50203 50209 1
56441 50211 50210 1
56442 50212 50211 1
56443 50213 50212 1
56444 50208 50210 1
56445 50207 50213 1
56446 50215 50214 1
56447 50216 50215 1
56448 50217 50216 1
56449 50212 50214 1
56450 50211 50217 1
56451 50219 50218 1
56452 50183 50219 1
56453 50209 50218 1
56454 50221 50220 1
56455 50218 50221 1
56456 50210 50220 1
56457 50223 50222 1
56458 50220 50223 1
56459 50217 50222 1
56460 50225 50224 1
56461 50226 50225 1
56462 50222 50226 1
56463 50216 50224 1
56464 50228 50227 1
56465 50229 50228 1
56466 50230 50229 1
56467 50215 50227 1
56468 50214 50230 1
56469 50232 50231 1
56470 50233 50232 1
56471 50234 50233 1
56472 50229 50231 1
56473 50228 50234 1
56474 50236 50235 1
56475 50237 50236 1
56476 50238 50237 1
56477 50234 50235 1
56478 50233 50238 1
56479 50240 50239 1
56480 50241 50240 1
56481 50223 50241 1
56482 50221 50239 1
56483 50243 50242 1
56484 50244 50243 1
56485 50245 50244 1
56486 50240 50242 1
56487 50239 50245 1
56488 50247 50246 1
56489 50248 50247 1
56490 50249 50248 1
56491 50244 50246 1
56492 50243 50249 1
56493 50251 50250 1
56494 50241 50251 1
56495 50226 50250 1
56496 50253 50252 1
56497 50254 50253 1
56498 50250 50254 1
56499 50225 50252 1
56500 50256 50255 1
56501 50257 50256 1
56502 50224 50257 1
56503 50252 50255 1
56504 50259 50258 1
56505 50260 50259 1
56506 50253 50258 1
56507 50255 50260 1
56508 50262 50261 1
56509 50263 50262 1
56510 50256 50261 1
56511 50260 50263 1
56512 50265 50264 1
56513 50266 50265 1
56514 50267 50266 1
56515 50262 50264 1
56516 50261 50267 1
56517 50269 50268 1
56518 50270 50269 1
56519 50259 50270 1
56520 50263 50268 1
56521 50264 50271 1
56522 50268 50272 1
56523 50271 50272 1
56524 50198 50273 1
56525 50273 50274 1
56526 50273 50275 1
56527 50230 50276 1
56528 50278 50277 1
56529 50279 50278 1
56530 50280 50279 1
56531 50270 50277 1
56532 50269 50280 1
56533 50282 50281 1
56534 50283 50282 1
56535 50284 50283 1
56536 50280 50281 1
56537 50279 50284 1
56538 50286 50285 1
56539 50287 50286 1
56540 50288 50287 1
56541 50283 50285 1
56542 50282 50288 1
56543 50290 50289 1
56544 50291 50290 1
56545 50281 50291 1
56546 50288 50289 1
56547 50293 50292 1
56548 50294 50293 1
56549 50287 50294 1
56550 50289 50292 1
56551 50296 50295 1
56552 50290 50296 1
56553 50272 50291 1
56554 50271 50295 1
56555 50298 50297 1
56556 50296 50298 1
56557 50292 50297 1
56558 50300 50299 1
56559 50301 50300 1
56560 50302 50301 1
56561 50298 50299 1
56562 50297 50302 1
56563 50302 50303 2
56564 50157 50304 1
56565 50157 50305 1
56566 50158 50306 1
56567 50158 50307 1
56568 50159 50308 1
56569 50160 50309 1
56570 50161 50310 1
56571 50161 50311 1
56572 50163 50312 1
56573 50164 50313 1
56574 50165 50314 1
56575 50165 50315 1
56576 50166 50316 1
56577 50166 50317 1
56578 50168 50318 1
56579 50169 50319 1
56580 50170 50320 1
56581 50170 50321 1
56582 50174 50322 1
56583 50179 50323 1
56584 50179 50324 1
56585 50180 50325 1
56586 50180 50326 1
56587 50181 50327 1
56588 50191 50329 1
56589 50191 50330 1
56590 50192 50331 1
56591 50193 50332 1
56592 50193 50333 1
56593 50194 50334 1
56594 50194 50335 1
56595 50197 50336 1
56596 50197 50337 1
56597 50198 50338 1
56598 50199 50339 1
56599 50199 50340 1
56600 50200 50341 1
56601 50200 50342 1
56602 50202 50343 1
56603 50206 50344 1
56604 50213 50345 1
56605 50219 50346 1
56606 50228 50347 1
56607 50229 50348 1
56608 50230 50349 1
56609 50231 50350 1
56610 50231 50351 1
56611 50232 50352 1
56612 50232 50353 1
56613 50233 50354 1
56614 50234 50355 1
56615 50235 50356 1
56616 50235 50357 1
56617 50236 50358 1
56618 50236 50359 1
56619 50237 50360 1
56620 50237 50361 1
56621 50238 50362 1
56622 50243 50363 1
56623 50244 50364 1
56624 50246 50365 1
56625 50246 50366 1
56626 50247 50367 1
56627 50247 50368 1
56628 50248 50369 1
56629 50248 50370 1
56630 50249 50371 1
56631 50249 50372 1
56632 50251 50373 1
56633 50254 50374 1
56634 50257 50375 1
56635 50261 50376 1
56636 50262 50377 1
56637 50264 50378 1
56638 50265 50379 1
56639 50265 50380 1
56640 50266 50381 1
56641 50266 50382 1
56642 50267 50383 1
56643 50267 50384 1
56644 50273 50385 1
56645 50274 50386 1
56646 50274 50387 1
56647 50274 50388 1
56648 50275 50389 1
56649 50275 50390 1
56650 50275 50391 1
56651 50276 50392 1
56652 50277 50393 1
56653 50278 50394 1
56654 50284 50395 1
56655 50285 50396 1
56656 50286 50397 1
56657 50293 50398 1
56658 50294 50399 1
56659 50295 50400 1
56660 50299 50401 1
56661 50299 50402 1
56662 50300 50403 1
56663 50300 50404 1
56664 50301 50405 1
56665 50301 50406 1
56666 50187 50328 1
56667 50409 50408 1
56668 50410 50409 1
56669 50411 50410 1
56670 50412 50411 1
56671 50407 50408 1
56672 50407 50412 1
56673 50414 50413 1
56674 50415 50414 1
56675 50416 50415 1
56676 50410 50413 1
56677 50409 50416 1
56678 50418 50417 1
56679 50419 50418 1
56680 50420 50419 1
56681 50414 50417 1
56682 50413 50420 1
56683 50422 50421 1
56684 50423 50422 1
56685 50424 50423 1
56686 50419 50421 1
56687 50418 50424 1
56688 50426 50425 1
56689 50427 50426 1
56690 50428 50427 1
56691 50423 50425 1
56692 50422 50428 1
56693 50430 50429 1
56694 50431 50430 1
56695 50421 50431 2
56696 50428 50429 1
56697 50433 50432 1
56698 50434 50433 1
56699 50435 50434 1
56700 50427 50432 1
56701 50426 50435 1
56702 50437 50436 1
56703 50438 50437 1
56704 50424 50436 1
56705 50425 50438 1
56706 50440 50439 2
56707 50441 50440 1
56708 50442 50441 1
56709 50437 50439 1
56710 50436 50442 2
56711 50444 50443 1
56712 50445 50444 1
56713 50446 50445 2
56714 50440 50443 1
56715 50439 50446 1
56716 50448 50447 1
56717 50449 50448 1
56718 50450 50449 1
56719 50446 50447 1
56720 50445 50450 1
56721 50452 50451 1
56722 50438 50452 1
56723 50435 50451 1
56724 50454 50453 1
56725 50455 50454 1
56726 50451 50455 1
56727 50434 50453 1
56728 50457 50456 1
56729 50458 50457 1
56730 50459 50458 1
56731 50454 50456 1
56732 50453 50459 1
56733 50461 50460 1
56734 50462 50461 1
56735 50463 50462 1
56736 50458 50460 1
56737 50457 50463 1
56738 50465 50464 1
56739 50466 50465 1
56740 50467 50466 1
56741 50462 50464 1
56742 50461 50467 1
56743 50469 50468 1
56744 50433 50469 1
56745 50459 50468 1
56746 50471 50470 1
56747 50468 50471 1
56748 50460 50470 1
56749 50473 50472 1
56750 50470 50473 1
56751 50467 50472 1
56752 50475 50474 1
56753 50476 50475 1
56754 50472 50476 1
56755 50466 50474 1
56756 50478 50477 1
56757 50479 50478 1
56758 50480 50479 1
56759 50465 50477 1
56760 50464 50480 1
56761 50482 50481 1
56762 50483 50482 1
56763 50484 50483 1
56764 50479 50481 1
56765 50478 50484 1
56766 50486 50485 1
56767 50487 50486 1
56768 50488 50487 1
56769 50484 50485 1
56770 50483 50488 1
56771 50490 50489 1
56772 50491 50490 1
56773 50473 50491 1
56774 50471 50489 1
56775 50493 50492 1
56776 50494 50493 1
56777 50495 50494 1
56778 50490 50492 1
56779 50489 50495 1
56780 50497 50496 1
56781 50498 50497 1
56782 50499 50498 1
56783 50494 50496 1
56784 50493 50499 1
56785 50501 50500 1
56786 50491 50501 1
56787 50476 50500 1
56788 50503 50502 1
56789 50504 50503 1
56790 50500 50504 1
56791 50475 50502 1
56792 50506 50505 1
56793 50507 50506 1
56794 50474 50507 1
56795 50502 50505 1
56796 50509 50508 1
56797 50510 50509 1
56798 50503 50508 1
56799 50505 50510 1
56800 50512 50511 1
56801 50513 50512 1
56802 50506 50511 1
56803 50510 50513 1
56804 50515 50514 1
56805 50516 50515 1
56806 50517 50516 1
56807 50512 50514 1
56808 50511 50517 1
56809 50519 50518 1
56810 50520 50519 1
56811 50509 50520 1
56812 50513 50518 1
56813 50514 50521 1
56814 50518 50522 1
56815 50521 50522 1
56816 50448 50523 1
56817 50523 50524 1
56818 50523 50525 1
56819 50480 50526 1
56820 50528 50527 1
56821 50529 50528 1
56822 50530 50529 1
56823 50520 50527 1
56824 50519 50530 1
56825 50532 50531 1
56826 50533 50532 1
56827 50534 50533 1
56828 50530 50531 1
56829 50529 50534 1
56830 50536 50535 1
56831 50537 50536 1
56832 50538 50537 1
56833 50533 50535 1
56834 50532 50538 1
56835 50540 50539 1
56836 50541 50540 1
56837 50531 50541 1
56838 50538 50539 1
56839 50543 50542 1
56840 50544 50543 1
56841 50537 50544 1
56842 50539 50542 1
56843 50546 50545 1
56844 50540 50546 1
56845 50522 50541 1
56846 50521 50545 1
56847 50548 50547 1
56848 50546 50548 1
56849 50542 50547 1
56850 50550 50549 1
56851 50551 50550 1
56852 50552 50551 1
56853 50548 50549 1
56854 50547 50552 1
56855 50552 50553 2
56856 50407 50554 1
56857 50407 50555 1
56858 50408 50556 1
56859 50408 50557 1
56860 50409 50558 1
56861 50410 50559 1
56862 50411 50560 1
56863 50411 50561 1
56864 50413 50562 1
56865 50414 50563 1
56866 50415 50564 1
56867 50415 50565 1
56868 50416 50566 1
56869 50416 50567 1
56870 50418 50568 1
56871 50419 50569 1
56872 50420 50570 1
56873 50420 50571 1
56874 50424 50572 1
56875 50429 50573 1
56876 50429 50574 1
56877 50430 50575 1
56878 50430 50576 1
56879 50431 50577 1
56880 50441 50579 1
56881 50441 50580 1
56882 50442 50581 1
56883 50443 50582 1
56884 50443 50583 1
56885 50444 50584 1
56886 50444 50585 1
56887 50447 50586 1
56888 50447 50587 1
56889 50448 50588 1
56890 50449 50589 1
56891 50449 50590 1
56892 50450 50591 1
56893 50450 50592 1
56894 50452 50593 1
56895 50456 50594 1
56896 50463 50595 1
56897 50469 50596 1
56898 50478 50597 1
56899 50479 50598 1
56900 50480 50599 1
56901 50481 50600 1
56902 50481 50601 1
56903 50482 50602 1
56904 50482 50603 1
56905 50483 50604 1
56906 50484 50605 1
56907 50485 50606 1
56908 50485 50607 1
56909 50486 50608 1
56910 50486 50609 1
56911 50487 50610 1
56912 50487 50611 1
56913 50488 50612 1
56914 50493 50613 1
56915 50494 50614 1
56916 50496 50615 1
56917 50496 50616 1
56918 50497 50617 1
56919 50497 50618 1
56920 50498 50619 1
56921 50498 50620 1
56922 50499 50621 1
56923 50499 50622 1
56924 50501 50623 1
56925 50504 50624 1
56926 50507 50625 1
56927 50511 50626 1
56928 50512 50627 1
56929 50514 50628 1
56930 50515 50629 1
56931 50515 50630 1
56932 50516 50631 1
56933 50516 50632 1
56934 50517 50633 1
56935 50517 50634 1
56936 50523 50635 1
56937 50524 50636 1
56938 50524 50637 1
56939 50524 50638 1
56940 50525 50639 1
56941 50525 50640 1
56942 50525 50641 1
56943 50526 50642 1
56944 50527 50643 1
56945 50528 50644 1
56946 50534 50645 1
56947 50535 50646 1
56948 50536 50647 1
56949 50543 50648 1
56950 50544 50649 1
56951 50545 50650 1
56952 50549 50651 1
56953 50549 50652 1
56954 50550 50653 1
56955 50550 50654 1
56956 50551 50655 1
56957 50551 50656 1
56958 50437 50578 1
56959 50659 50658 1
56960 50660 50659 1
56961 50661 50660 1
56962 50662 50661 1
56963 50657 50658 1
56964 50657 50662 1
56965 50664 50663 1
56966 50665 50664 1
56967 50666 50665 1
56968 50660 50663 1
56969 50659 50666 1
56970 50668 50667 1
56971 50669 50668 1
56972 50670 50669 1
56973 50664 50667 1
56974 50663 50670 1
56975 50672 50671 1
56976 50673 50672 1
56977 50674 50673 1
56978 50669 50671 1
56979 50668 50674 1
56980 50676 50675 1
56981 50677 50676 1
56982 50678 50677 1
56983 50673 50675 1
56984 50672 50678 1
56985 50680 50679 1
56986 50681 50680 1
56987 50671 50681 2
56988 50678 50679 1
56989 50683 50682 1
56990 50684 50683 1
56991 50685 50684 1
56992 50677 50682 1
56993 50676 50685 1
56994 50687 50686 1
56995 50688 50687 1
56996 50674 50686 1
56997 50675 50688 1
56998 50690 50689 2
56999 50691 50690 1
57000 50692 50691 1
57001 50687 50689 1
57002 50686 50692 2
57003 50694 50693 1
57004 50695 50694 1
57005 50696 50695 2
57006 50690 50693 1
57007 50689 50696 1
57008 50698 50697 1
57009 50699 50698 1
57010 50700 50699 1
57011 50696 50697 1
57012 50695 50700 1
57013 50702 50701 1
57014 50688 50702 1
57015 50685 50701 1
57016 50704 50703 1
57017 50705 50704 1
57018 50701 50705 1
57019 50684 50703 1
57020 50707 50706 1
57021 50708 50707 1
57022 50709 50708 1
57023 50704 50706 1
57024 50703 50709 1
57025 50711 50710 1
57026 50712 50711 1
57027 50713 50712 1
57028 50708 50710 1
57029 50707 50713 1
57030 50715 50714 1
57031 50716 50715 1
57032 50717 50716 1
57033 50712 50714 1
57034 50711 50717 1
57035 50719 50718 1
57036 50683 50719 1
57037 50709 50718 1
57038 50721 50720 1
57039 50718 50721 1
57040 50710 50720 1
57041 50723 50722 1
57042 50720 50723 1
57043 50717 50722 1
57044 50725 50724 1
57045 50726 50725 1
57046 50722 50726 1
57047 50716 50724 1
57048 50728 50727 1
57049 50729 50728 1
57050 50730 50729 1
57051 50715 50727 1
57052 50714 50730 1
57053 50732 50731 1
57054 50733 50732 1
57055 50734 50733 1
57056 50729 50731 1
57057 50728 50734 1
57058 50736 50735 1
57059 50737 50736 1
57060 50738 50737 1
57061 50734 50735 1
57062 50733 50738 1
57063 50740 50739 1
57064 50741 50740 1
57065 50723 50741 1
57066 50721 50739 1
57067 50743 50742 1
57068 50744 50743 1
57069 50745 50744 1
57070 50740 50742 1
57071 50739 50745 1
57072 50747 50746 1
57073 50748 50747 1
57074 50749 50748 1
57075 50744 50746 1
57076 50743 50749 1
57077 50751 50750 1
57078 50741 50751 1
57079 50726 50750 1
57080 50753 50752 1
57081 50754 50753 1
57082 50750 50754 1
57083 50725 50752 1
57084 50756 50755 1
57085 50757 50756 1
57086 50724 50757 1
57087 50752 50755 1
57088 50759 50758 1
57089 50760 50759 1
57090 50753 50758 1
57091 50755 50760 1
57092 50762 50761 1
57093 50763 50762 1
57094 50756 50761 1
57095 50760 50763 1
57096 50765 50764 1
57097 50766 50765 1
57098 50767 50766 1
57099 50762 50764 1
57100 50761 50767 1
57101 50769 50768 1
57102 50770 50769 1
57103 50759 50770 1
57104 50763 50768 1
57105 50764 50771 1
57106 50768 50772 1
57107 50771 50772 1
57108 50698 50773 1
57109 50773 50774 1
57110 50773 50775 1
57111 50730 50776 1
57112 50778 50777 1
57113 50779 50778 1
57114 50780 50779 1
57115 50770 50777 1
57116 50769 50780 1
57117 50782 50781 1
57118 50783 50782 1
57119 50784 50783 1
57120 50780 50781 1
57121 50779 50784 1
57122 50786 50785 1
57123 50787 50786 1
57124 50788 50787 1
57125 50783 50785 1
57126 50782 50788 1
57127 50790 50789 1
57128 50791 50790 1
57129 50781 50791 1
57130 50788 50789 1
57131 50793 50792 1
57132 50794 50793 1
57133 50787 50794 1
57134 50789 50792 1
57135 50796 50795 1
57136 50790 50796 1
57137 50772 50791 1
57138 50771 50795 1
57139 50798 50797 1
57140 50796 50798 1
57141 50792 50797 1
57142 50800 50799 1
57143 50801 50800 1
57144 50802 50801 1
57145 50798 50799 1
57146 50797 50802 1
57147 50802 50803 2
57148 50657 50804 1
57149 50657 50805 1
57150 50658 50806 1
57151 50658 50807 1
57152 50659 50808 1
57153 50660 50809 1
57154 50661 50810 1
57155 50661 50811 1
57156 50663 50812 1
57157 50664 50813 1
57158 50665 50814 1
57159 50665 50815 1
57160 50666 50816 1
57161 50666 50817 1
57162 50668 50818 1
57163 50669 50819 1
57164 50670 50820 1
57165 50670 50821 1
57166 50674 50822 1
57167 50679 50823 1
57168 50679 50824 1
57169 50680 50825 1
57170 50680 50826 1
57171 50681 50827 1
57172 50691 50829 1
57173 50691 50830 1
57174 50692 50831 1
57175 50693 50832 1
57176 50693 50833 1
57177 50694 50834 1
57178 50694 50835 1
57179 50697 50836 1
57180 50697 50837 1
57181 50698 50838 1
57182 50699 50839 1
57183 50699 50840 1
57184 50700 50841 1
57185 50700 50842 1
57186 50702 50843 1
57187 50706 50844 1
57188 50713 50845 1
57189 50719 50846 1
57190 50728 50847 1
57191 50729 50848 1
57192 50730 50849 1
57193 50731 50850 1
57194 50731 50851 1
57195 50732 50852 1
57196 50732 50853 1
57197 50733 50854 1
57198 50734 50855 1
57199 50735 50856 1
57200 50735 50857 1
57201 50736 50858 1
57202 50736 50859 1
57203 50737 50860 1
57204 50737 50861 1
57205 50738 50862 1
57206 50743 50863 1
57207 50744 50864 1
57208 50746 50865 1
57209 50746 50866 1
57210 50747 50867 1
57211 50747 50868 1
57212 50748 50869 1
57213 50748 50870 1
57214 50749 50871 1
57215 50749 50872 1
57216 50751 50873 1
57217 50754 50874 1
57218 50757 50875 1
57219 50761 50876 1
57220 50762 50877 1
57221 50764 50878 1
57222 50765 50879 1
57223 50765 50880 1
57224 50766 50881 1
57225 50766 50882 1
57226 50767 50883 1
57227 50767 50884 1
57228 50773 50885 1
57229 50774 50886 1
57230 50774 50887 1
57231 50774 50888 1
57232 50775 50889 1
57233 50775 50890 1
57234 50775 50891 1
57235 50776 50892 1
57236 50777 50893 1
57237 50778 50894 1
57238 50784 50895 1
57239 50785 50896 1
57240 50786 50897 1
57241 50793 50898 1
57242 50794 50899 1
57243 50795 50900 1
57244 50799 50901 1
57245 50799 50902 1
57246 50800 50903 1
57247 50800 50904 1
57248 50801 50905 1
57249 50801 50906 1
57250 50687 50828 1
57251 50909 50908 1
57252 50910 50909 1
57253 50911 50910 1
57254 50912 50911 1
57255 50907 50908 1
57256 50907 50912 1
57257 50914 50913 1
57258 50915 50914 1
57259 50916 50915 1
57260 50910 50913 1
57261 50909 50916 1
57262 50918 50917 1
57263 50919 50918 1
57264 50920 50919 1
57265 50914 50917 1
57266 50913 50920 1
57267 50922 50921 1
57268 50923 50922 1
57269 50924 50923 1
57270 50919 50921 1
57271 50918 50924 1
57272 50926 50925 1
57273 50927 50926 1
57274 50928 50927 1
57275 50923 50925 1
57276 50922 50928 1
57277 50930 50929 1
57278 50931 50930 1
57279 50921 50931 2
57280 50928 50929 1
57281 50933 50932 1
57282 50934 50933 1
57283 50935 50934 1
57284 50927 50932 1
57285 50926 50935 1
57286 50937 50936 1
57287 50938 50937 1
57288 50924 50936 1
57289 50925 50938 1
57290 50940 50939 2
57291 50941 50940 1
57292 50942 50941 1
57293 50937 50939 1
57294 50936 50942 2
57295 50944 50943 1
57296 50945 50944 1
57297 50946 50945 2
57298 50940 50943 1
57299 50939 50946 1
57300 50948 50947 1
57301 50949 50948 1
57302 50950 50949 1
57303 50946 50947 1
57304 50945 50950 1
57305 50952 50951 1
57306 50938 50952 1
57307 50935 50951 1
57308 50954 50953 1
57309 50955 50954 1
57310 50951 50955 1
57311 50934 50953 1
57312 50957 50956 1
57313 50958 50957 1
57314 50959 50958 1
57315 50954 50956 1
57316 50953 50959 1
57317 50961 50960 1
57318 50962 50961 1
57319 50963 50962 1
57320 50958 50960 1
57321 50957 50963 1
57322 50965 50964 1
57323 50966 50965 1
57324 50967 50966 1
57325 50962 50964 1
57326 50961 50967 1
57327 50969 50968 1
57328 50933 50969 1
57329 50959 50968 1
57330 50971 50970 1
57331 50968 50971 1
57332 50960 50970 1
57333 50973 50972 1
57334 50970 50973 1
57335 50967 50972 1
57336 50975 50974 1
57337 50976 50975 1
57338 50972 50976 1
57339 50966 50974 1
57340 50978 50977 1
57341 50979 50978 1
57342 50980 50979 1
57343 50965 50977 1
57344 50964 50980 1
57345 50982 50981 1
57346 50983 50982 1
57347 50984 50983 1
57348 50979 50981 1
57349 50978 50984 1
57350 50986 50985 1
57351 50987 50986 1
57352 50988 50987 1
57353 50984 50985 1
57354 50983 50988 1
57355 50990 50989 1
57356 50991 50990 1
57357 50973 50991 1
57358 50971 50989 1
57359 50993 50992 1
57360 50994 50993 1
57361 50995 50994 1
57362 50990 50992 1
57363 50989 50995 1
57364 50997 50996 1
57365 50998 50997 1
57366 50999 50998 1
57367 50994 50996 1
57368 50993 50999 1
57369 51001 51000 1
57370 50991 51001 1
57371 50976 51000 1
57372 51003 51002 1
57373 51004 51003 1
57374 51000 51004 1
57375 50975 51002 1
57376 51006 51005 1
57377 51007 51006 1
57378 50974 51007 1
57379 51002 51005 1
57380 51009 51008 1
57381 51010 51009 1
57382 51003 51008 1
57383 51005 51010 1
57384 51012 51011 1
57385 51013 51012 1
57386 51006 51011 1
57387 51010 51013 1
57388 51015 51014 1
57389 51016 51015 1
57390 51017 51016 1
57391 51012 51014 1
57392 51011 51017 1
57393 51019 51018 1
57394 51020 51019 1
57395 51009 51020 1
57396 51013 51018 1
57397 51014 51021 1
57398 51018 51022 1
57399 51021 51022 1
57400 50948 51023 1
57401 51023 51024 1
57402 51023 51025 1
57403 50980 51026 1
57404 51028 51027 1
57405 51029 51028 1
57406 51030 51029 1
57407 51020 51027 1
57408 51019 51030 1
57409 51032 51031 1
57410 51033 51032 1
57411 51034 51033 1
57412 51030 51031 1
57413 51029 51034 1
57414 51036 51035 1
57415 51037 51036 1
57416 51038 51037 1
57417 51033 51035 1
57418 51032 51038 1
57419 51040 51039 1
57420 51041 51040 1
57421 51031 51041 1
57422 51038 51039 1
57423 51043 51042 1
57424 51044 51043 1
57425 51037 51044 1
57426 51039 51042 1
57427 51046 51045 1
57428 51040 51046 1
57429 51022 51041 1
57430 51021 51045 1
57431 51048 51047 1
57432 51046 51048 1
57433 51042 51047 1
57434 51050 51049 1
57435 51051 51050 1
57436 51052 51051 1
57437 51048 51049 1
57438 51047 51052 1
57439 51052 51053 2
57440 50907 51054 1
57441 50907 51055 1
57442 50908 51056 1
57443 50908 51057 1
57444 50909 51058 1
57445 50910 51059 1
57446 50911 51060 1
57447 50911 51061 1
57448 50913 51062 1
57449 50914 51063 1
57450 50915 51064 1
57451 50915 51065 1
57452 50916 51066 1
57453 50916 51067 1
57454 50918 51068 1
57455 50919 51069 1
57456 50920 51070 1
57457 50920 51071 1
57458 50924 51072 1
57459 50929 51073 1
57460 50929 51074 1
57461 50930 51075 1
57462 50930 51076 1
57463 50931 51077 1
57464 50941 51079 1
57465 50941 51080 1
57466 50942 51081 1
57467 50943 51082 1
57468 50943 51083 1
57469 50944 51084 1
57470 50944 51085 1
57471 50947 51086 1
57472 50947 51087 1
57473 50948 51088 1
57474 50949 51089 1
57475 50949 51090 1
57476 50950 51091 1
57477 50950 51092 1
57478 50952 51093 1
57479 50956 51094 1
57480 50963 51095 1
57481 50969 51096 1
57482 50978 51097 1
57483 50979 51098 1
57484 50980 51099 1
57485 50981 51100 1
57486 50981 51101 1
57487 50982 51102 1
57488 50982 51103 1
57489 50983 51104 1
57490 50984 51105 1
57491 50985 51106 1
57492 50985 51107 1
57493 50986 51108 1
57494 50986 51109 1
57495 50987 51110 1
57496 50987 51111 1
57497 50988 51112 1
57498 50993 51113 1
57499 50994 51114 1
57500 50996 51115 1
57501 50996 51116 1
57502 50997 51117 1
57503 50997 51118 1
57504 50998 51119 1
57505 50998 51120 1
57506 50999 51121 1
57507 50999 51122 1
57508 51001 51123 1
57509 51004 51124 1
57510 51007 51125 1
57511 51011 51126 1
57512 51012 51127 1
57513 51014 51128 1
57514 51015 51129 1
57515 51015 51130 1
57516 51016 51131 1
57517 51016 51132 1
57518 51017 51133 1
57519 51017 51134 1
57520 51023 51135 1
57521 51024 51136 1
57522 51024 51137 1
57523 51024 51138 1
57524 51025 51139 1
57525 51025 51140 1
57526 51025 51141 1
57527 51026 51142 1
57528 51027 51143 1
57529 51028 51144 1
57530 51034 51145 1
57531 51035 51146 1
57532 51036 51147 1
57533 51043 51148 1
57534 51044 51149 1
57535 51045 51150 1
57536 51049 51151 1
57537 51049 51152 1
57538 51050 51153 1
57539 51050 51154 1
57540 51051 51155 1
57541 51051 51156 1
57542 50937 51078 1
57543 51159 51158 1
57544 51160 51159 1
57545 51161 51160 1
57546 51162 51161 1
57547 51157 51158 1
57548 51157 51162 1
57549 51164 51163 1
57550 51165 51164 1
57551 51166 51165 1
57552 51160 51163 1
57553 51159 51166 1
57554 51168 51167 1
57555 51169 51168 1
57556 51170 51169 1
57557 51164 51167 1
57558 51163 51170 1
57559 51172 51171 1
57560 51173 51172 1
57561 51174 51173 1
57562 51169 51171 1
57563 51168 51174 1
57564 51176 51175 1
57565 51177 51176 1
57566 51178 51177 1
57567 51173 51175 1
57568 51172 51178 1
57569 51180 51179 1
57570 51181 51180 1
57571 51171 51181 2
57572 51178 51179 1
57573 51183 51182 1
57574 51184 51183 1
57575 51185 51184 1
57576 51177 51182 1
57577 51176 51185 1
57578 51187 51186 1
57579 51188 51187 1
57580 51174 51186 1
57581 51175 51188 1
57582 51190 51189 2
57583 51191 51190 1
57584 51192 51191 1
57585 51187 51189 1
57586 51186 51192 2
57587 51194 51193 1
57588 51195 51194 1
57589 51196 51195 2
57590 51190 51193 1
57591 51189 51196 1
57592 51198 51197 1
57593 51199 51198 1
57594 51200 51199 1
57595 51196 51197 1
57596 51195 51200 1
57597 51202 51201 1
57598 51188 51202 1
57599 51185 51201 1
57600 51204 51203 1
57601 51205 51204 1
57602 51201 51205 1
57603 51184 51203 1
57604 51207 51206 1
57605 51208 51207 1
57606 51209 51208 1
57607 51204 51206 1
57608 51203 51209 1
57609 51211 51210 1
57610 51212 51211 1
57611 51213 51212 1
57612 51208 51210 1
57613 51207 51213 1
57614 51215 51214 1
57615 51216 51215 1
57616 51217 51216 1
57617 51212 51214 1
57618 51211 51217 1
57619 51219 51218 1
57620 51183 51219 1
57621 51209 51218 1
57622 51221 51220 1
57623 51218 51221 1
57624 51210 51220 1
57625 51223 51222 1
57626 51220 51223 1
57627 51217 51222 1
57628 51225 51224 1
57629 51226 51225 1
57630 51222 51226 1
57631 51216 51224 1
57632 51228 51227 1
57633 51229 51228 1
57634 51230 51229 1
57635 51215 51227 1
57636 51214 51230 1
57637 51232 51231 1
57638 51233 51232 1
57639 51234 51233 1
57640 51229 51231 1
57641 51228 51234 1
57642 51236 51235 1
57643 51237 51236 1
57644 51238 51237 1
57645 51234 51235 1
57646 51233 51238 1
57647 51240 51239 1
57648 51241 51240 1
57649 51223 51241 1
57650 51221 51239 1
57651 51243 51242 1
57652 51244 51243 1
57653 51245 51244 1
57654 51240 51242 1
57655 51239 51245 1
57656 51247 51246 1
57657 51248 51247 1
57658 51249 51248 1
57659 51244 51246 1
57660 51243 51249 1
57661 51251 51250 1
57662 51241 51251 1
57663 51226 51250 1
57664 51253 51252 1
57665 51254 51253 1
57666 51250 51254 1
57667 51225 51252 1
57668 51256 51255 1
57669 51257 51256 1
57670 51224 51257 1
57671 51252 51255 1
57672 51259 51258 1
57673 51260 51259 1
57674 51253 51258 1
57675 51255 51260 1
57676 51262 51261 1
57677 51263 51262 1
57678 51256 51261 1
57679 51260 51263 1
57680 51265 51264 1
57681 51266 51265 1
57682 51267 51266 1
57683 51262 51264 1
57684 51261 51267 1
57685 51269 51268 1
57686 51270 51269 1
57687 51259 51270 1
57688 51263 51268 1
57689 51264 51271 1
57690 51268 51272 1
57691 51271 51272 1
57692 51198 51273 1
57693 51273 51274 1
57694 51273 51275 1
57695 51230 51276 1
57696 51278 51277 1
57697 51279 51278 1
57698 51280 51279 1
57699 51270 51277 1
57700 51269 51280 1
57701 51282 51281 1
57702 51283 51282 1
57703 51284 51283 1
57704 51280 51281 1
57705 51279 51284 1
57706 51286 51285 1
57707 51287 51286 1
57708 51288 51287 1
57709 51283 51285 1
57710 51282 51288 1
57711 51290 51289 1
57712 51291 51290 1
57713 51281 51291 1
57714 51288 51289 1
57715 51293 51292 1
57716 51294 51293 1
57717 51287 51294 1
57718 51289 51292 1
57719 51296 51295 1
57720 51290 51296 1
57721 51272 51291 1
57722 51271 51295 1
57723 51298 51297 1
57724 51296 51298 1
57725 51292 51297 1
57726 51300 51299 1
57727 51301 51300 1
57728 51302 51301 1
57729 51298 51299 1
57730 51297 51302 1
57731 51302 51303 2
57732 51157 51304 1
57733 51157 51305 1
57734 51158 51306 1
57735 51158 51307 1
57736 51159 51308 1
57737 51160 51309 1
57738 51161 51310 1
57739 51161 51311 1
57740 51163 51312 1
57741 51164 51313 1
57742 51165 51314 1
57743 51165 51315 1
57744 51166 51316 1
57745 51166 51317 1
57746 51168 51318 1
57747 51169 51319 1
57748 51170 51320 1
57749 51170 51321 1
57750 51174 51322 1
57751 51179 51323 1
57752 51179 51324 1
57753 51180 51325 1
57754 51180 51326 1
57755 51181 51327 1
57756 51191 51329 1
57757 51191 51330 1
57758 51192 51331 1
57759 51193 51332 1
57760 51193 51333 1
57761 51194 51334 1
57762 51194 51335 1
57763 51197 51336 1
57764 51197 51337 1
57765 51198 51338 1
57766 51199 51339 1
57767 51199 51340 1
57768 51200 51341 1
57769 51200 51342 1
57770 51202 51343 1
57771 51206 51344 1
57772 51213 51345 1
57773 51219 51346 1
57774 51228 51347 1
57775 51229 51348 1
57776 51230 51349 1
57777 51231 51350 1
57778 51231 51351 1
57779 51232 51352 1
57780 51232 51353 1
57781 51233 51354 1
57782 51234 51355 1
57783 51235 51356 1
57784 51235 51357 1
57785 51236 51358 1
57786 51236 51359 1
57787 51237 51360 1
57788 51237 51361 1
57789 51238 51362 1
57790 51243 51363 1
57791 51244 51364 1
57792 51246 51365 1
57793 51246 51366 1
57794 51247 51367 1
57795 51247 51368 1
57796 51248 51369 1
57797 51248 51370 1
57798 51249 51371 1
57799 51249 51372 1
57800 51251 51373 1
57801 51254 51374 1
57802 51257 51375 1
57803 51261 51376 1
57804 51262 51377 1
57805 51264 51378 1
57806 51265 51379 1
57807 51265 51380 1
57808 51266 51381 1
57809 51266 51382 1
57810 51267 51383 1
57811 51267 51384 1
57812 51273 51385 1
57813 51274 51386 1
57814 51274 51387 1
57815 51274 51388 1
57816 51275 51389 1
57817 51275 51390 1
57818 51275 51391 1
57819 51276 51392 1
57820 51277 51393 1
57821 51278 51394 1
57822 51284 51395 1
57823 51285 51396 1
57824 51286 51397 1
57825 51293 51398 1
57826 51294 51399 1
57827 51295 51400 1
57828 51299 51401 1
57829 51299 51402 1
57830 51300 51403 1
57831 51300 51404 1
57832 51301 51405 1
57833 51301 51406 1
57834 51187 51328 1
57835 51409 51408 1
57836 51410 51409 1
57837 51411 51410 1
57838 51412 51411 1
57839 51407 51408 1
57840 51407 51412 1
57841 51414 51413 1
57842 51415 51414 1
57843 51416 51415 1
57844 51410 51413 1
57845 51409 51416 1
57846 51418 51417 1
57847 51419 51418 1
57848 51420 51419 1
57849 51414 51417 1
57850 51413 51420 1
57851 51422 51421 1
57852 51423 51422 1
57853 51424 51423 1
57854 51419 51421 1
57855 51418 51424 1
57856 51426 51425 1
57857 51427 51426 1
57858 51428 51427 1
57859 51423 51425 1
57860 51422 51428 1
57861 51430 51429 1
57862 51431 51430 1
57863 51421 51431 2
57864 51428 51429 1
57865 51433 51432 1
57866 51434 51433 1
57867 51435 51434 1
57868 51427 51432 1
57869 51426 51435 1
57870 51437 51436 1
57871 51438 51437 1
57872 51424 51436 1
57873 51425 51438 1
57874 51440 51439 2
57875 51441 51440 1
57876 51442 51441 1
57877 51437 51439 1
57878 51436 51442 2
57879 51444 51443 1
57880 51445 51444 1
57881 51446 51445 2
57882 51440 51443 1
57883 51439 51446 1
57884 51448 51447 1
57885 51449 51448 1
57886 51450 51449 1
57887 51446 51447 1
57888 51445 51450 1
57889 51452 51451 1
57890 51438 51452 1
57891 51435 51451 1
57892 51454 51453 1
57893 51455 51454 1
57894 51451 51455 1
57895 51434 51453 1
57896 51457 51456 1
57897 51458 51457 1
57898 51459 51458 1
57899 51454 51456 1
57900 51453 51459 1
57901 51461 51460 1
57902 51462 51461 1
57903 51463 51462 1
57904 51458 51460 1
57905 51457 51463 1
57906 51465 51464 1
57907 51466 51465 1
57908 51467 51466 1
57909 51462 51464 1
57910 51461 51467 1
57911 51469 51468 1
57912 51433 51469 1
57913 51459 51468 1
57914 51471 51470 1
57915 51468 51471 1
57916 51460 51470 1
57917 51473 51472 1
57918 51470 51473 1
57919 51467 51472 1
57920 51475 51474 1
57921 51476 51475 1
57922 51472 51476 1
57923 51466 51474 1
57924 51478 51477 1
57925 51479 51478 1
57926 51480 51479 1
57927 51465 51477 1
57928 51464 51480 1
57929 51482 51481 1
57930 51483 51482 1
57931 51484 51483 1
57932 51479 51481 1
57933 51478 51484 1
57934 51486 51485 1
57935 51487 51486 1
57936 51488 51487 1
57937 51484 51485 1
57938 51483 51488 1
57939 51490 51489 1
57940 51491 51490 1
57941 51473 51491 1
57942 51471 51489 1
57943 51493 51492 1
57944 51494 51493 1
57945 51495 51494 1
57946 51490 51492 1
57947 51489 51495 1
57948 51497 51496 1
57949 51498 51497 1
57950 51499 51498 1
57951 51494 51496 1
57952 51493 51499 1
57953 51501 51500 1
57954 51491 51501 1
57955 51476 51500 1
57956 51503 51502 1
57957 51504 51503 1
57958 51500 51504 1
57959 51475 51502 1
57960 51506 51505 1
57961 51507 51506 1
57962 51474 51507 1
57963 51502 51505 1
57964 51509 51508 1
57965 51510 51509 1
57966 51503 51508 1
57967 51505 51510 1
57968 51512 51511 1
57969 51513 51512 1
57970 51506 51511 1
57971 51510 51513 1
57972 51515 51514 1
57973 51516 51515 1
57974 51517 51516 1
57975 51512 51514 1
57976 51511 51517 1
57977 51519 51518 1
57978 51520 51519 1
57979 51509 51520 1
57980 51513 51518 1
57981 51514 51521 1
57982 51518 51522 1
57983 51521 51522 1
57984 51448 51523 1
57985 51523 51524 1
57986 51523 51525 1
57987 51480 51526 1
57988 51528 51527 1
57989 51529 51528 1
57990 51530 51529 1
57991 51520 51527 1
57992 51519 51530 1
57993 51532 51531 1
57994 51533 51532 1
57995 51534 51533 1
57996 51530 51531 1
57997 51529 51534 1
57998 51536 51535 1
57999 51537 51536 1
58000 51538 51537 1
58001 51533 51535 1
58002 51532 51538 1
58003 51540 51539 1
58004 51541 51540 1
58005 51531 51541 1
58006 51538 51539 1
58007 51543 51542 1
58008 51544 51543 1
58009 51537 51544 1
58010 51539 51542 1
58011 51546 51545 1
58012 51540 51546 1
58013 51522 51541 1
58014 51521 51545 1
58015 51548 51547 1
58016 51546 51548 1
58017 51542 51547 1
58018 51550 51549 1
58019 51551 51550 1
58020 51552 51551 1
58021 51548 51549 1
58022 51547 51552 1
58023 51552 51553 2
58024 51407 51554 1
58025 51407 51555 1
58026 51408 51556 1
58027 51408 51557 1
58028 51409 51558 1
58029 51410 51559 1
58030 51411 51560 1
58031 51411 51561 1
58032 51413 51562 1
58033 51414 51563 1
58034 51415 51564 1
58035 51415 51565 1
58036 51416 51566 1
58037 51416 51567 1
58038 51418 51568 1
58039 51419 51569 1
58040 51420 51570 1
58041 51420 51571 1
58042 51424 51572 1
58043 51429 51573 1
58044 51429 51574 1
58045 51430 51575 1
58046 51430 51576 1
58047 51431 51577 1
58048 51441 51579 1
58049 51441 51580 1
58050 51442 51581 1
58051 51443 51582 1
58052 51443 51583 1
58053 51444 51584 1
58054 51444 51585 1
58055 51447 51586 1
58056 51447 51587 1
58057 51448 51588 1
58058 51449 51589 1
58059 51449 51590 1
58060 51450 51591 1
58061 51450 51592 1
58062 51452 51593 1
58063 51456 51594 1
58064 51463 51595 1
58065 51469 51596 1
58066 51478 51597 1
58067 51479 51598 1
58068 51480 51599 1
58069 51481 51600 1
58070 51481 51601 1
58071 51482 51602 1
58072 51482 51603 1
58073 51483 51604 1
58074 51484 51605 1
58075 51485 51606 1
58076 51485 51607 1
58077 51486 51608 1
58078 51486 51609 1
58079 51487 51610 1
58080 51487 51611 1
58081 51488 51612 1
58082 51493 51613 1
58083 51494 51614 1
58084 51496 51615 1
58085 51496 51616 1
58086 51497 51617 1
58087 51497 51618 1
58088 51498 51619 1
58089 51498 51620 1
58090 51499 51621 1
58091 51499 51622 1
58092 51501 51623 1
58093 51504 51624 1
58094 51507 51625 1
58095 51511 51626 1
58096 51512 51627 1
58097 51514 51628 1
58098 51515 51629 1
58099 51515 51630 1
58100 51516 51631 1
58101 51516 51632 1
58102 51517 51633 1
58103 51517 51634 1
58104 51523 51635 1
58105 51524 51636 1
58106 51524 51637 1
58107 51524 51638 1
58108 51525 51639 1
58109 51525 51640 1
58110 51525 51641 1
58111 51526 51642 1
58112 51527 51643 1
58113 51528 51644 1
58114 51534 51645 1
58115 51535 51646 1
58116 51536 51647 1
58117 51543 51648 1
58118 51544 51649 1
58119 51545 51650 1
58120 51549 51651 1
58121 51549 51652 1
58122 51550 51653 1
58123 51550 51654 1
58124 51551 51655 1
58125 51551 51656 1
58126 51437 51578 1
58127 51659 51658 1
58128 51660 51659 1
58129 51661 51660 1
58130 51662 51661 1
58131 51657 51658 1
58132 51657 51662 1
58133 51664 51663 1
58134 51665 51664 1
58135 51666 51665 1
58136 51660 51663 1
58137 51659 51666 1
58138 51668 51667 1
58139 51669 51668 1
58140 51670 51669 1
58141 51664 51667 1
58142 51663 51670 1
58143 51672 51671 1
58144 51673 51672 1
58145 51674 51673 1
58146 51669 51671 1
58147 51668 51674 1
58148 51676 51675 1
58149 51677 51676 1
58150 51678 51677 1
58151 51673 51675 1
58152 51672 51678 1
58153 51680 51679 1
58154 51681 51680 1
58155 51671 51681 2
58156 51678 51679 1
58157 51683 51682 1
58158 51684 51683 1
58159 51685 51684 1
58160 51677 51682 1
58161 51676 51685 1
58162 51687 51686 1
58163 51688 51687 1
58164 51674 51686 1
58165 51675 51688 1
58166 51690 51689 2
58167 51691 51690 1
58168 51692 51691 1
58169 51687 51689 1
58170 51686 51692 2
58171 51694 51693 1
58172 51695 51694 1
58173 51696 51695 2
58174 51690 51693 1
58175 51689 51696 1
58176 51698 51697 1
58177 51699 51698 1
58178 51700 51699 1
58179 51696 51697 1
58180 51695 51700 1
58181 51702 51701 1
58182 51688 51702 1
58183 51685 51701 1
58184 51704 51703 1
58185 51705 51704 1
58186 51701 51705 1
58187 51684 51703 1
58188 51707 51706 1
58189 51708 51707 1
58190 51709 51708 1
58191 51704 51706 1
58192 51703 51709 1
58193 51711 51710 1
58194 51712 51711 1
58195 51713 51712 1
58196 51708 51710 1
58197 51707 51713 1
58198 51715 51714 1
58199 51716 51715 1
58200 51717 51716 1
58201 51712 51714 1
58202 51711 51717 1
58203 51719 51718 1
58204 51683 51719 1
58205 51709 51718 1
58206 51721 51720 1
58207 51718 51721 1
58208 51710 51720 1
58209 51723 51722 1
58210 51720 51723 1
58211 51717 51722 1
58212 51725 51724 1
58213 51726 51725 1
58214 51722 51726 1
58215 51716 51724 1
58216 51728 51727 1
58217 51729 51728 1
58218 51730 51729 1
58219 51715 51727 1
58220 51714 51730 1
58221 51732 51731 1
58222 51733 51732 1
58223 51734 51733 1
58224 51729 51731 1
58225 51728 51734 1
58226 51736 51735 1
58227 51737 51736 1
58228 51738 51737 1
58229 51734 51735 1
58230 51733 51738 1
58231 51740 51739 1
58232 51741 51740 1
58233 51723 51741 1
58234 51721 51739 1
58235 51743 51742 1
58236 51744 51743 1
58237 51745 51744 1
58238 51740 51742 1
58239 51739 51745 1
58240 51747 51746 1
58241 51748 51747 1
58242 51749 51748 1
58243 51744 51746 1
58244 51743 51749 1
58245 51751 51750 1
58246 51741 51751 1
58247 51726 51750 1
58248 51753 51752 1
58249 51754 51753 1
58250 51750 51754 1
58251 51725 51752 1
58252 51756 51755 1
58253 51757 51756 1
58254 51724 51757 1
58255 51752 51755 1
58256 51759 51758 1
58257 51760 51759 1
58258 51753 51758 1
58259 51755 51760 1
58260 51762 51761 1
58261 51763 51762 1
58262 51756 51761 1
58263 51760 51763 1
58264 51765 51764 1
58265 51766 51765 1
58266 51767 51766 1
58267 51762 51764 1
58268 51761 51767 1
58269 51769 51768 1
58270 51770 51769 1
58271 51759 51770 1
58272 51763 51768 1
58273 51764 51771 1
58274 51768 51772 1
58275 51771 51772 1
58276 51698 51773 1
58277 51773 51774 1
58278 51773 51775 1
58279 51730 51776 1
58280 51778 51777 1
58281 51779 51778 1
58282 51780 51779 1
58283 51770 51777 1
58284 51769 51780 1
58285 51782 51781 1
58286 51783 51782 1
58287 51784 51783 1
58288 51780 51781 1
58289 51779 51784 1
58290 51786 51785 1
58291 51787 51786 1
58292 51788 51787 1
58293 51783 51785 1
58294 51782 51788 1
58295 51790 51789 1
58296 51791 51790 1
58297 51781 51791 1
58298 51788 51789 1
58299 51793 51792 1
58300 51794 51793 1
58301 51787 51794 1
58302 51789 51792 1
58303 51796 51795 1
58304 51790 51796 1
58305 51772 51791 1
58306 51771 51795 1
58307 51798 51797 1
58308 51796 51798 1
58309 51792 51797 1
58310 51800 51799 1
58311 51801 51800 1
58312 51802 51801 1
58313 51798 51799 1
58314 51797 51802 1
58315 51802 51803 2
58316 51657 51804 1
58317 51657 51805 1
58318 51658 51806 1
58319 51658 51807 1
58320 51659 51808 1
58321 51660 51809 1
58322 51661 51810 1
58323 51661 51811 1
58324 51663 51812 1
58325 51664 51813 1
58326 51665 51814 1
58327 51665 51815 1
58328 51666 51816 1
58329 51666 51817 1
58330 51668 51818 1
58331 51669 51819 1
58332 51670 51820 1
58333 51670 51821 1
58334 51674 51822 1
58335 51679 51823 1
58336 51679 51824 1
58337 51680 51825 1
58338 51680 51826 1
58339 51681 51827 1
58340 51691 51829 1
58341 51691 51830 1
58342 51692 51831 1
58343 51693 51832 1
58344 51693 51833 1
58345 51694 51834 1
58346 51694 51835 1
58347 51697 51836 1
58348 51697 51837 1
58349 51698 51838 1
58350 51699 51839 1
58351 51699 51840 1
58352 51700 51841 1
58353 51700 51842 1
58354 51702 51843 1
58355 51706 51844 1
58356 51713 51845 1
58357 51719 51846 1
58358 51728 51847 1
58359 51729 51848 1
58360 51730 51849 1
58361 51731 51850 1
58362 51731 51851 1
58363 51732 51852 1
58364 51732 51853 1
58365 51733 51854 1
58366 51734 51855 1
58367 51735 51856 1
58368 51735 51857 1
58369 51736 51858 1
58370 51736 51859 1
58371 51737 51860 1
58372 51737 51861 1
58373 51738 51862 1
58374 51743 51863 1
58375 51744 51864 1
58376 51746 51865 1
58377 51746 51866 1
58378 51747 51867 1
58379 51747 51868 1
58380 51748 51869 1
58381 51748 51870 1
58382 51749 51871 1
58383 51749 51872 1
58384 51751 51873 1
58385 51754 51874 1
58386 51757 51875 1
58387 51761 51876 1
58388 51762 51877 1
58389 51764 51878 1
58390 51765 51879 1
58391 51765 51880 1
58392 51766 51881 1
58393 51766 51882 1
58394 51767 51883 1
58395 51767 51884 1
58396 51773 51885 1
58397 51774 51886 1
58398 51774 51887 1
58399 51774 51888 1
58400 51775 51889 1
58401 51775 51890 1
58402 51775 51891 1
58403 51776 51892 1
58404 51777 51893 1
58405 51778 51894 1
58406 51784 51895 1
58407 51785 51896 1
58408 51786 51897 1
58409 51793 51898 1
58410 51794 51899 1
58411 51795 51900 1
58412 51799 51901 1
58413 51799 51902 1
58414 51800 51903 1
58415 51800 51904 1
58416 51801 51905 1
58417 51801 51906 1
58418 51687 51828 1
58419 51909 51908 1
58420 51910 51909 1
58421 51911 51910 1
58422 51912 51911 1
58423 51907 51908 1
58424 51907 51912 1
58425 51914 51913 1
58426 51915 51914 1
58427 51916 51915 1
58428 51910 51913 1
58429 51909 51916 1
58430 51918 51917 1
58431 51919 51918 1
58432 51920 51919 1
58433 51914 51917 1
58434 51913 51920 1
58435 51922 51921 1
58436 51923 51922 1
58437 51924 51923 1
58438 51919 51921 1
58439 51918 51924 1
58440 51926 51925 1
58441 51927 51926 1
58442 51928 51927 1
58443 51923 51925 1
58444 51922 51928 1
58445 51930 51929 1
58446 51931 51930 1
58447 51921 51931 2
58448 51928 51929 1
58449 51933 51932 1
58450 51934 51933 1
58451 51935 51934 1
58452 51927 51932 1
58453 51926 51935 1
58454 51937 51936 1
58455 51938 51937 1
58456 51924 51936 1
58457 51925 51938 1
58458 51940 51939 2
58459 51941 51940 1
58460 51942 51941 1
58461 51937 51939 1
58462 51936 51942 2
58463 51944 51943 1
58464 51945 51944 1
58465 51946 51945 2
58466 51940 51943 1
58467 51939 51946 1
58468 51948 51947 1
58469 51949 51948 1
58470 51950 51949 1
58471 51946 51947 1
58472 51945 51950 1
58473 51952 51951 1
58474 51938 51952 1
58475 51935 51951 1
58476 51954 51953 1
58477 51955 51954 1
58478 51951 51955 1
58479 51934 51953 1
58480 51957 51956 1
58481 51958 51957 1
58482 51959 51958 1
58483 51954 51956 1
58484 51953 51959 1
58485 51961 51960 1
58486 51962 51961 1
58487 51963 51962 1
58488 51958 51960 1
58489 51957 51963 1
58490 51965 51964 1
58491 51966 51965 1
58492 51967 51966 1
58493 51962 51964 1
58494 51961 51967 1
58495 51969 51968 1
58496 51933 51969 1
58497 51959 51968 1
58498 51971 51970 1
58499 51968 51971 1
58500 51960 51970 1
58501 51973 51972 1
58502 51970 51973 1
58503 51967 51972 1
58504 51975 51974 1
58505 51976 51975 1
58506 51972 51976 1
58507 51966 51974 1
58508 51978 51977 1
58509 51979 51978 1
58510 51980 51979 1
58511 51965 51977 1
58512 51964 51980 1
58513 51982 51981 1
58514 51983 51982 1
58515 51984 51983 1
58516 51979 51981 1
58517 51978 51984 1
58518 51986 51985 1
58519 51987 51986 1
58520 51988 51987 1
58521 51984 51985 1
58522 51983 51988 1
58523 51990 51989 1
58524 51991 51990 1
58525 51973 51991 1
58526 51971 51989 1
58527 51993 51992 1
58528 51994 51993 1
58529 51995 51994 1
58530 51990 51992 1
58531 51989 51995 1
58532 51997 51996 1
58533 51998 51997 1
58534 51999 51998 1
58535 51994 51996 1
58536 51993 51999 1
58537 52001 52000 1
58538 51991 52001 1
58539 51976 52000 1
58540 52003 52002 1
58541 52004 52003 1
58542 52000 52004 1
58543 51975 52002 1
58544 52006 52005 1
58545 52007 52006 1
58546 51974 52007 1
58547 52002 52005 1
58548 52009 52008 1
58549 52010 52009 1
58550 52003 52008 1
58551 52005 52010 1
58552 52012 52011 1
58553 52013 52012 1
58554 52006 52011 1
58555 52010 52013 1
58556 52015 52014 1
58557 52016 52015 1
58558 52017 52016 1
58559 52012 52014 1
58560 52011 52017 1
58561 52019 52018 1
58562 52020 52019 1
58563 52009 52020 1
58564 52013 52018 1
58565 52014 52021 1
58566 52018 52022 1
58567 52021 52022 1
58568 51948 52023 1
58569 52023 52024 1
58570 52023 52025 1
58571 51980 52026 1
58572 52028 52027 1
58573 52029 52028 1
58574 52030 52029 1
58575 52020 52027 1
58576 52019 52030 1
58577 52032 52031 1
58578 52033 52032 1
58579 52034 52033 1
58580 52030 52031 1
58581 52029 52034 1
58582 52036 52035 1
58583 52037 52036 1
58584 52038 52037 1
58585 52033 52035 1
58586 52032 52038 1
58587 52040 52039 1
58588 52041 52040 1
58589 52031 52041 1
58590 52038 52039 1
58591 52043 52042 1
58592 52044 52043 1
58593 52037 52044 1
58594 52039 52042 1
58595 52046 52045 1
58596 52040 52046 1
58597 52022 52041 1
58598 52021 52045 1
58599 52048 52047 1
58600 52046 52048 1
58601 52042 52047 1
58602 52050 52049 1
58603 52051 52050 1
58604 52052 52051 1
58605 52048 52049 1
58606 52047 52052 1
58607 52052 52053 2
58608 51907 52054 1
58609 51907 52055 1
58610 51908 52056 1
58611 51908 52057 1
58612 51909 52058 1
58613 51910 52059 1
58614 51911 52060 1
58615 51911 52061 1
58616 51913 52062 1
58617 51914 52063 1
58618 51915 52064 1
58619 51915 52065 1
58620 51916 52066 1
58621 51916 52067 1
58622 51918 52068 1
58623 51919 52069 1
58624 51920 52070 1
58625 51920 52071 1
58626 51924 52072 1
58627 51929 52073 1
58628 51929 52074 1
58629 51930 52075 1
58630 51930 52076 1
58631 51931 52077 1
58632 51941 52079 1
58633 51941 52080 1
58634 51942 52081 1
58635 51943 52082 1
58636 51943 52083 1
58637 51944 52084 1
58638 51944 52085 1
58639 51947 52086 1
58640 51947 52087 1
58641 51948 52088 1
58642 51949 52089 1
58643 51949 52090 1
58644 51950 52091 1
58645 51950 52092 1
58646 51952 52093 1
58647 51956 52094 1
58648 51963 52095 1
58649 51969 52096 1
58650 51978 52097 1
58651 51979 52098 1
58652 51980 52099 1
58653 51981 52100 1
58654 51981 52101 1
58655 51982 52102 1
58656 51982 52103 1
58657 51983 52104 1
58658 51984 52105 1
58659 51985 52106 1
58660 51985 52107 1
58661 51986 52108 1
58662 51986 52109 1
58663 51987 52110 1
58664 51987 52111 1
58665 51988 52112 1
58666 51993 52113 1
58667 51994 52114 1
58668 51996 52115 1
58669 51996 52116 1
58670 51997 52117 1
58671 51997 52118 1
58672 51998 52119 1
58673 51998 52120 1
58674 51999 52121 1
58675 51999 52122 1
58676 52001 52123 1
58677 52004 52124 1
58678 52007 52125 1
58679 52011 52126 1
58680 52012 52127 1
58681 52014 52128 1
58682 52015 52129 1
58683 52015 52130 1
58684 52016 52131 1
58685 52016 52132 1
58686 52017 52133 1
58687 52017 52134 1
58688 52023 52135 1
58689 52024 52136 1
58690 52024 52137 1
58691 52024 52138 1
58692 52025 52139 1
58693 52025 52140 1
58694 52025 52141 1
58695 52026 52142 1
58696 52027 52143 1
58697 52028 52144 1
58698 52034 52145 1
58699 52035 52146 1
58700 52036 52147 1
58701 52043 52148 1
58702 52044 52149 1
58703 52045 52150 1
58704 52049 52151 1
58705 52049 52152 1
58706 52050 52153 1
58707 52050 52154 1
58708 52051 52155 1
58709 52051 52156 1
58710 51937 52078 1
58711 52159 52158 1
58712 52160 52159 1
58713 52161 52160 1
58714 52162 52161 1
58715 52157 52158 1
58716 52157 52162 1
58717 52164 52163 1
58718 52165 52164 1
58719 52166 52165 1
58720 52160 52163 1
58721 52159 52166 1
58722 52168 52167 1
58723 52169 52168 1
58724 52170 52169 1
58725 52164 52167 1
58726 52163 52170 1
58727 52172 52171 1
58728 52173 52172 1
58729 52174 52173 1
58730 52169 52171 1
58731 52168 52174 1
58732 52176 52175 1
58733 52177 52176 1
58734 52178 52177 1
58735 52173 52175 1
58736 52172 52178 1
58737 52180 52179 1
58738 52181 52180 1
58739 52171 52181 2
58740 52178 52179 1
58741 52183 52182 1
58742 52184 52183 1
58743 52185 52184 1
58744 52177 52182 1
58745 52176 52185 1
58746 52187 52186 1
58747 52188 52187 1
58748 52174 52186 1
58749 52175 52188 1
58750 52190 52189 2
58751 52191 52190 1
58752 52192 52191 1
58753 52187 52189 1
58754 52186 52192 2
58755 52194 52193 1
58756 52195 52194 1
58757 52196 52195 2
58758 52190 52193 1
58759 52189 52196 1
58760 52198 52197 1
58761 52199 52198 1
58762 52200 52199 1
58763 52196 52197 1
58764 52195 52200 1
58765 52202 52201 1
58766 52188 52202 1
58767 52185 52201 1
58768 52204 52203 1
58769 52205 52204 1
58770 52201 52205 1
58771 52184 52203 1
58772 52207 52206 1
58773 52208 52207 1
58774 52209 52208 1
58775 52204 52206 1
58776 52203 52209 1
58777 52211 52210 1
58778 52212 52211 1
58779 52213 52212 1
58780 52208 52210 1
58781 52207 52213 1
58782 52215 52214 1
58783 52216 52215 1
58784 52217 52216 1
58785 52212 52214 1
58786 52211 52217 1
58787 52219 52218 1
58788 52183 52219 1
58789 52209 52218 1
58790 52221 52220 1
58791 52218 52221 1
58792 52210 52220 1
58793 52223 52222 1
58794 52220 52223 1
58795 52217 52222 1
58796 52225 52224 1
58797 52226 52225 1
58798 52222 52226 1
58799 52216 52224 1
58800 52228 52227 1
58801 52229 52228 1
58802 52230 52229 1
58803 52215 52227 1
58804 52214 52230 1
58805 52232 52231 1
58806 52233 52232 1
58807 52234 52233 1
58808 52229 52231 1
58809 52228 52234 1
58810 52236 52235 1
58811 52237 52236 1
58812 52238 52237 1
58813 52234 52235 1
58814 52233 52238 1
58815 52240 52239 1
58816 52241 52240 1
58817 52223 52241 1
58818 52221 52239 1
58819 52243 52242 1
58820 52244 52243 1
58821 52245 52244 1
58822 52240 52242 1
58823 52239 52245 1
58824 52247 52246 1
58825 52248 52247 1
58826 52249 52248 1
58827 52244 52246 1
58828 52243 52249 1
58829 52251 52250 1
58830 52241 52251 1
58831 52226 52250 1
58832 52253 52252 1
58833 52254 52253 1
58834 52250 52254 1
58835 52225 52252 1
58836 52256 52255 1
58837 52257 52256 1
58838 52224 52257 1
58839 52252 52255 1
58840 52259 52258 1
58841 52260 52259 1
58842 52253 52258 1
58843 52255 52260 1
58844 52262 52261 1
58845 52263 52262 1
58846 52256 52261 1
58847 52260 52263 1
58848 52265 52264 1
58849 52266 52265 1
58850 52267 52266 1
58851 52262 52264 1
58852 52261 52267 1
58853 52269 52268 1
58854 52270 52269 1
58855 52259 52270 1
58856 52263 52268 1
58857 52264 52271 1
58858 52268 52272 1
58859 52271 52272 1
58860 52198 52273 1
58861 52273 52274 1
58862 52273 52275 1
58863 52230 52276 1
58864 52278 52277 1
58865 52279 52278 1
58866 52280 52279 1
58867 52270 52277 1
58868 52269 52280 1
58869 52282 52281 1
58870 52283 52282 1
58871 52284 52283 1
58872 52280 52281 1
58873 52279 52284 1
58874 52286 52285 1
58875 52287 52286 1
58876 52288 52287 1
58877 52283 52285 1
58878 52282 52288 1
58879 52290 52289 1
58880 52291 52290 1
58881 52281 52291 1
58882 52288 52289 1
58883 52293 52292 1
58884 52294 52293 1
58885 52287 52294 1
58886 52289 52292 1
58887 52296 52295 1
58888 52290 52296 1
58889 52272 52291 1
58890 52271 52295 1
58891 52298 52297 1
58892 52296 52298 1
58893 52292 52297 1
58894 52300 52299 1
58895 52301 52300 1
58896 52302 52301 1
58897 52298 52299 1
58898 52297 52302 1
58899 52302 52303 2
58900 52157 52304 1
58901 52157 52305 1
58902 52158 52306 1
58903 52158 52307 1
58904 52159 52308 1
58905 52160 52309 1
58906 52161 52310 1
58907 52161 52311 1
58908 52163 52312 1
58909 52164 52313 1
58910 52165 52314 1
58911 52165 52315 1
58912 52166 52316 1
58913 52166 52317 1
58914 52168 52318 1
58915 52169 52319 1
58916 52170 52320 1
58917 52170 52321 1
58918 52174 52322 1
58919 52179 52323 1
58920 52179 52324 1
58921 52180 52325 1
58922 52180 52326 1
58923 52181 52327 1
58924 52191 52329 1
58925 52191 52330 1
58926 52192 52331 1
58927 52193 52332 1
58928 52193 52333 1
58929 52194 52334 1
58930 52194 52335 1
58931 52197 52336 1
58932 52197 52337 1
58933 52198 52338 1
58934 52199 52339 1
58935 52199 52340 1
58936 52200 52341 1
58937 52200 52342 1
58938 52202 52343 1
58939 52206 52344 1
58940 52213 52345 1
58941 52219 52346 1
58942 52228 52347 1
58943 52229 52348 1
58944 52230 52349 1
58945 52231 52350 1
58946 52231 52351 1
58947 52232 52352 1
58948 52232 52353 1
58949 52233 52354 1
58950 52234 52355 1
58951 52235 52356 1
58952 52235 52357 1
58953 52236 52358 1
58954 52236 52359 1
58955 52237 52360 1
58956 52237 52361 1
58957 52238 52362 1
58958 52243 52363 1
58959 52244 52364 1
58960 52246 52365 1
58961 52246 52366 1
58962 52247 52367 1
58963 52247 52368 1
58964 52248 52369 1
58965 52248 52370 1
58966 52249 52371 1
58967 52249 52372 1
58968 52251 52373 1
58969 52254 52374 1
58970 52257 52375 1
58971 52261 52376 1
58972 52262 52377 1
58973 52264 52378 1
58974 52265 52379 1
58975 52265 52380 1
58976 52266 52381 1
58977 52266 52382 1
58978 52267 52383 1
58979 52267 52384 1
58980 52273 52385 1
58981 52274 52386 1
58982 52274 52387 1
58983 52274 52388 1
58984 52275 52389 1
58985 52275 52390 1
58986 52275 52391 1
58987 52276 52392 1
58988 52277 52393 1
58989 52278 52394 1
58990 52284 52395 1
58991 52285 52396 1
58992 52286 52397 1
58993 52293 52398 1
58994 52294 52399 1
58995 52295 52400 1
58996 52299 52401 1
58997 52299 52402 1
58998 52300 52403 1
58999 52300 52404 1
59000 52301 52405 1
59001 52301 52406 1
59002 52187 52328 1
59003 52409 52408 1
59004 52410 52409 1
59005 52411 52410 1
59006 52412 52411 1
59007 52407 52408 1
59008 52407 52412 1
59009 52414 52413 1
59010 52415 52414 1
59011 52416 52415 1
59012 52410 52413 1
59013 52409 52416 1
59014 52418 52417 1
59015 52419 52418 1
59016 52420 52419 1
59017 52414 52417 1
59018 52413 52420 1
59019 52422 52421 1
59020 52423 52422 1
59021 52424 52423 1
59022 52419 52421 1
59023 52418 52424 1
59024 52426 52425 1
59025 52427 52426 1
59026 52428 52427 1
59027 52423 52425 1
59028 52422 52428 1
59029 52430 52429 1
59030 52431 52430 1
59031 52421 52431 2
59032 52428 52429 1
59033 52433 52432 1
59034 52434 52433 1
59035 52435 52434 1
59036 52427 52432 1
59037 52426 52435 1
59038 52437 52436 1
59039 52438 52437 1
59040 52424 52436 1
59041 52425 52438 1
59042 52440 52439 2
59043 52441 52440 1
59044 52442 52441 1
59045 52437 52439 1
59046 52436 52442 2
59047 52444 52443 1
59048 52445 52444 1
59049 52446 52445 2
59050 52440 52443 1
59051 52439 52446 1
59052 52448 52447 1
59053 52449 52448 1
59054 52450 52449 1
59055 52446 52447 1
59056 52445 52450 1
59057 52452 52451 1
59058 52438 52452 1
59059 52435 52451 1
59060 52454 52453 1
59061 52455 52454 1
59062 52451 52455 1
59063 52434 52453 1
59064 52457 52456 1
59065 52458 52457 1
59066 52459 52458 1
59067 52454 52456 1
59068 52453 52459 1
59069 52461 52460 1
59070 52462 52461 1
59071 52463 52462 1
59072 52458 52460 1
59073 52457 52463 1
59074 52465 52464 1
59075 52466 52465 1
59076 52467 52466 1
59077 52462 52464 1
59078 52461 52467 1
59079 52469 52468 1
59080 52433 52469 1
59081 52459 52468 1
59082 52471 52470 1
59083 52468 52471 1
59084 52460 52470 1
59085 52473 52472 1
59086 52470 52473 1
59087 52467 52472 1
59088 52475 52474 1
59089 52476 52475 1
59090 52472 52476 1
59091 52466 52474 1
59092 52478 52477 1
59093 52479 52478 1
59094 52480 52479 1
59095 52465 52477 1
59096 52464 52480 1
59097 52482 52481 1
59098 52483 52482 1
59099 52484 52483 1
59100 52479 52481 1
59101 52478 52484 1
59102 52486 52485 1
59103 52487 52486 1
59104 52488 52487 1
59105 52484 52485 1
59106 52483 52488 1
59107 52490 52489 1
59108 52491 52490 1
59109 52473 52491 1
59110 52471 52489 1
59111 52493 52492 1
59112 52494 52493 1
59113 52495 52494 1
59114 52490 52492 1
59115 52489 52495 1
59116 52497 52496 1
59117 52498 52497 1
59118 52499 52498 1
59119 52494 52496 1
59120 52493 52499 1
59121 52501 52500 1
59122 52491 52501 1
59123 52476 52500 1
59124 52503 52502 1
59125 52504 52503 1
59126 52500 52504 1
59127 52475 52502 1
59128 52506 52505 1
59129 52507 52506 1
59130 52474 52507 1
59131 52502 52505 1
59132 52509 52508 1
59133 52510 52509 1
59134 52503 52508 1
59135 52505 52510 1
59136 52512 52511 1
59137 52513 52512 1
59138 52506 52511 1
59139 52510 52513 1
59140 52515 52514 1
59141 52516 52515 1
59142 52517 52516 1
59143 52512 52514 1
59144 52511 52517 1
59145 52519 52518 1
59146 52520 52519 1
59147 52509 52520 1
59148 52513 52518 1
59149 52514 52521 1
59150 52518 52522 1
59151 52521 52522 1
59152 52448 52523 1
59153 52523 52524 1
59154 52523 52525 1
59155 52480 52526 1
59156 52528 52527 1
59157 52529 52528 1
59158 52530 52529 1
59159 52520 52527 1
59160 52519 52530 1
59161 52532 52531 1
59162 52533 52532 1
59163 52534 52533 1
59164 52530 52531 1
59165 52529 52534 1
59166 52536 52535 1
59167 52537 52536 1
59168 52538 52537 1
59169 52533 52535 1
59170 52532 52538 1
59171 52540 52539 1
59172 52541 52540 1
59173 52531 52541 1
59174 52538 52539 1
59175 52543 52542 1
59176 52544 52543 1
59177 52537 52544 1
59178 52539 52542 1
59179 52546 52545 1
59180 52540 52546 1
59181 52522 52541 1
59182 52521 52545 1
59183 52548 52547 1
59184 52546 52548 1
59185 52542 52547 1
59186 52550 52549 1
59187 52551 52550 1
59188 52552 52551 1
59189 52548 52549 1
59190 52547 52552 1
59191 52552 52553 2
59192 52407 52554 1
59193 52407 52555 1
59194 52408 52556 1
59195 52408 52557 1
59196 52409 52558 1
59197 52410 52559 1
59198 52411 52560 1
59199 52411 52561 1
59200 52413 52562 1
59201 52414 52563 1
59202 52415 52564 1
59203 52415 52565 1
59204 52416 52566 1
59205 52416 52567 1
59206 52418 52568 1
59207 52419 52569 1
59208 52420 52570 1
59209 52420 52571 1
59210 52424 52572 1
59211 52429 52573 1
59212 52429 52574 1
59213 52430 52575 1
59214 52430 52576 1
59215 52431 52577 1
59216 52441 52579 1
59217 52441 52580 1
59218 52442 52581 1
59219 52443 52582 1
59220 52443 52583 1
59221 52444 52584 1
59222 52444 52585 1
59223 52447 52586 1
59224 52447 52587 1
59225 52448 52588 1
59226 52449 52589 1
59227 52449 52590 1
59228 52450 52591 1
59229 52450 52592 1
59230 52452 52593 1
59231 52456 52594 1
59232 52463 52595 1
59233 52469 52596 1
59234 52478 52597 1
59235 52479 52598 1
59236 52480 52599 1
59237 52481 52600 1
59238 52481 52601 1
59239 52482 52602 1
59240 52482 52603 1
59241 52483 52604 1
59242 52484 52605 1
59243 52485 52606 1
59244 52485 52607 1
59245 52486 52608 1
59246 52486 52609 1
59247 52487 52610 1
59248 52487 52611 1
59249 52488 52612 1
59250 52493 52613 1
59251 52494 52614 1
59252 52496 52615 1
59253 52496 52616 1
59254 52497 52617 1
59255 52497 52618 1
59256 52498 52619 1
59257 52498 52620 1
59258 52499 52621 1
59259 52499 52622 1
59260 52501 52623 1
59261 52504 52624 1
59262 52507 52625 1
59263 52511 52626 1
59264 52512 52627 1
59265 52514 52628 1
59266 52515 52629 1
59267 52515 52630 1
59268 52516 52631 1
59269 52516 52632 1
59270 52517 52633 1
59271 52517 52634 1
59272 52523 52635 1
59273 52524 52636 1
59274 52524 52637 1
59275 52524 52638 1
59276 52525 52639 1
59277 52525 52640 1
59278 52525 52641 1
59279 52526 52642 1
59280 52527 52643 1
59281 52528 52644 1
59282 52534 52645 1
59283 52535 52646 1
59284 52536 52647 1
59285 52543 52648 1
59286 52544 52649 1
59287 52545 52650 1
59288 52549 52651 1
59289 52549 52652 1
59290 52550 52653 1
59291 52550 52654 1
59292 52551 52655 1
59293 52551 52656 1
59294 52437 52578 1
59295 52659 52658 1
59296 52660 52659 1
59297 52661 52660 1
59298 52662 52661 1
59299 52657 52658 1
59300 52657 52662 1
59301 52664 52663 1
59302 52665 52664 1
59303 52666 52665 1
59304 52660 52663 1
59305 52659 52666 1
59306 52668 52667 1
59307 52669 52668 1
59308 52670 52669 1
59309 52664 52667 1
59310 52663 52670 1
59311 52672 52671 1
59312 52673 52672 1
59313 52674 52673 1
59314 52669 52671 1
59315 52668 52674 1
59316 52676 52675 1
59317 52677 52676 1
59318 52678 52677 1
59319 52673 52675 1
59320 52672 52678 1
59321 52680 52679 1
59322 52681 52680 1
59323 52671 52681 2
59324 52678 52679 1
59325 52683 52682 1
59326 52684 52683 1
59327 52685 52684 1
59328 52677 52682 1
59329 52676 52685 1
59330 52687 52686 1
59331 52688 52687 1
59332 52674 52686 1
59333 52675 52688 1
59334 52690 52689 2
59335 52691 52690 1
59336 52692 52691 1
59337 52687 52689 1
59338 52686 52692 2
59339 52694 52693 1
59340 52695 52694 1
59341 52696 52695 2
59342 52690 52693 1
59343 52689 52696 1
59344 52698 52697 1
59345 52699 52698 1
59346 52700 52699 1
59347 52696 52697 1
59348 52695 52700 1
59349 52702 52701 1
59350 52688 52702 1
59351 52685 52701 1
59352 52704 52703 1
59353 52705 52704 1
59354 52701 52705 1
59355 52684 52703 1
59356 52707 52706 1
59357 52708 52707 1
59358 52709 52708 1
59359 52704 52706 1
59360 52703 52709 1
59361 52711 52710 1
59362 52712 52711 1
59363 52713 52712 1
59364 52708 52710 1
59365 52707 52713 1
59366 52715 52714 1
59367 52716 52715 1
59368 52717 52716 1
59369 52712 52714 1
59370 52711 52717 1
59371 52719 52718 1
59372 52683 52719 1
59373 52709 52718 1
59374 52721 52720 1
59375 52718 52721 1
59376 52710 52720 1
59377 52723 52722 1
59378 52720 52723 1
59379 52717 52722 1
59380 52725 52724 1
59381 52726 52725 1
59382 52722 52726 1
59383 52716 52724 1
59384 52728 52727 1
59385 52729 52728 1
59386 52730 52729 1
59387 52715 52727 1
59388 52714 52730 1
59389 52732 52731 1
59390 52733 52732 1
59391 52734 52733 1
59392 52729 52731 1
59393 52728 52734 1
59394 52736 52735 1
59395 52737 52736 1
59396 52738 52737 1
59397 52734 52735 1
59398 52733 52738 1
59399 52740 52739 1
59400 52741 52740 1
59401 52723 52741 1
59402 52721 52739 1
59403 52743 52742 1
59404 52744 52743 1
59405 52745 52744 1
59406 52740 52742 1
59407 52739 52745 1
59408 52747 52746 1
59409 52748 52747 1
59410 52749 52748 1
59411 52744 52746 1
59412 52743 52749 1
59413 52751 52750 1
59414 52741 52751 1
59415 52726 52750 1
59416 52753 52752 1
59417 52754 52753 1
59418 52750 52754 1
59419 52725 52752 1
59420 52756 52755 1
59421 52757 52756 1
59422 52724 52757 1
59423 52752 52755 1
59424 52759 52758 1
59425 52760 52759 1
59426 52753 52758 1
59427 52755 52760 1
59428 52762 52761 1
59429 52763 52762 1
59430 52756 52761 1
59431 52760 52763 1
59432 52765 52764 1
59433 52766 52765 1
59434 52767 52766 1
59435 52762 52764 1
59436 52761 52767 1
59437 52769 52768 1
59438 52770 52769 1
59439 52759 52770 1
59440 52763 52768 1
59441 52764 52771 1
59442 52768 52772 1
59443 52771 52772 1
59444 52698 52773 1
59445 52773 52774 1
59446 52773 52775 1
59447 52730 52776 1
59448 52778 52777 1
59449 52779 52778 1
59450 52780 52779 1
59451 52770 52777 1
59452 52769 52780 1
59453 52782 52781 1
59454 52783 52782 1
59455 52784 52783 1
59456 52780 52781 1
59457 52779 52784 1
59458 52786 52785 1
59459 52787 52786 1
59460 52788 52787 1
59461 52783 52785 1
59462 52782 52788 1
59463 52790 52789 1
59464 52791 52790 1
59465 52781 52791 1
59466 52788 52789 1
59467 52793 52792 1
59468 52794 52793 1
59469 52787 52794 1
59470 52789 52792 1
59471 52796 52795 1
59472 52790 52796 1
59473 52772 52791 1
59474 52771 52795 1
59475 52798 52797 1
59476 52796 52798 1
59477 52792 52797 1
59478 52800 52799 1
59479 52801 52800 1
59480 52802 52801 1
59481 52798 52799 1
59482 52797 52802 1
59483 52802 52803 2
59484 52657 52804 1
59485 52657 52805 1
59486 52658 52806 1
59487 52658 52807 1
59488 52659 52808 1
59489 52660 52809 1
59490 52661 52810 1
59491 52661 52811 1
59492 52663 52812 1
59493 52664 52813 1
59494 52665 52814 1
59495 52665 52815 1
59496 52666 52816 1
59497 52666 52817 1
59498 52668 52818 1
59499 52669 52819 1
59500 52670 52820 1
59501 52670 52821 1
59502 52674 52822 1
59503 52679 52823 1
59504 52679 52824 1
59505 52680 52825 1
59506 52680 52826 1
59507 52681 52827 1
59508 52691 52829 1
59509 52691 52830 1
59510 52692 52831 1
59511 52693 52832 1
59512 52693 52833 1
59513 52694 52834 1
59514 52694 52835 1
59515 52697 52836 1
59516 52697 52837 1
59517 52698 52838 1
59518 52699 52839 1
59519 52699 52840 1
59520 52700 52841 1
59521 52700 52842 1
59522 52702 52843 1
59523 52706 52844 1
59524 52713 52845 1
59525 52719 52846 1
59526 52728 52847 1
59527 52729 52848 1
59528 52730 52849 1
59529 52731 52850 1
59530 52731 52851 1
59531 52732 52852 1
59532 52732 52853 1
59533 52733 52854 1
59534 52734 52855 1
59535 52735 52856 1
59536 52735 52857 1
59537 52736 52858 1
59538 52736 52859 1
59539 52737 52860 1
59540 52737 52861 1
59541 52738 52862 1
59542 52743 52863 1
59543 52744 52864 1
59544 52746 52865 1
59545 52746 52866 1
59546 52747 52867 1
59547 52747 52868 1
59548 52748 52869 1
59549 52748 52870 1
59550 52749 52871 1
59551 52749 52872 1
59552 52751 52873 1
59553 52754 52874 1
59554 52757 52875 1
59555 52761 52876 1
59556 52762 52877 1
59557 52764 52878 1
59558 52765 52879 1
59559 52765 52880 1
59560 52766 52881 1
59561 52766 52882 1
59562 52767 52883 1
59563 52767 52884 1
59564 52773 52885 1
59565 52774 52886 1
59566 52774 52887 1
59567 52774 52888 1
59568 52775 52889 1
59569 52775 52890 1
59570 52775 52891 1
59571 52776 52892 1
59572 52777 52893 1
59573 52778 52894 1
59574 52784 52895 1
59575 52785 52896 1
59576 52786 52897 1
59577 52793 52898 1
59578 52794 52899 1
59579 52795 52900 1
59580 52799 52901 1
59581 52799 52902 1
59582 52800 52903 1
59583 52800 52904 1
59584 52801 52905 1
59585 52801 52906 1
59586 52687 52828 1
59587 52909 52908 1
59588 52910 52909 1
59589 52911 52910 1
59590 52912 52911 1
59591 52907 52908 1
59592 52907 52912 1
59593 52914 52913 1
59594 52915 52914 1
59595 52916 52915 1
59596 52910 52913 1
59597 52909 52916 1
59598 52918 52917 1
59599 52919 52918 1
59600 52920 52919 1
59601 52914 52917 1
59602 52913 52920 1
59603 52922 52921 1
59604 52923 52922 1
59605 52924 52923 1
59606 52919 52921 1
59607 52918 52924 1
59608 52926 52925 1
59609 52927 52926 1
59610 52928 52927 1
59611 52923 52925 1
59612 52922 52928 1
59613 52930 52929 1
59614 52931 52930 1
59615 52921 52931 2
59616 52928 52929 1
59617 52933 52932 1
59618 52934 52933 1
59619 52935 52934 1
59620 52927 52932 1
59621 52926 52935 1
59622 52937 52936 1
59623 52938 52937 1
59624 52924 52936 1
59625 52925 52938 1
59626 52940 52939 2
59627 52941 52940 1
59628 52942 52941 1
59629 52937 52939 1
59630 52936 52942 2
59631 52944 52943 1
59632 52945 52944 1
59633 52946 52945 2
59634 52940 52943 1
59635 52939 52946 1
59636 52948 52947 1
59637 52949 52948 1
59638 52950 52949 1
59639 52946 52947 1
59640 52945 52950 1
59641 52952 52951 1
59642 52938 52952 1
59643 52935 52951 1
59644 52954 52953 1
59645 52955 52954 1
59646 52951 52955 1
59647 52934 52953 1
59648 52957 52956 1
59649 52958 52957 1
59650 52959 52958 1
59651 52954 52956 1
59652 52953 52959 1
59653 52961 52960 1
59654 52962 52961 1
59655 52963 52962 1
59656 52958 52960 1
59657 52957 52963 1
59658 52965 52964 1
59659 52966 52965 1
59660 52967 52966 1
59661 52962 52964 1
59662 52961 52967 1
59663 52969 52968 1
59664 52933 52969 1
59665 52959 52968 1
59666 52971 52970 1
59667 52968 52971 1
59668 52960 52970 1
59669 52973 52972 1
59670 52970 52973 1
59671 52967 52972 1
59672 52975 52974 1
59673 52976 52975 1
59674 52972 52976 1
59675 52966 52974 1
59676 52978 52977 1
59677 52979 52978 1
59678 52980 52979 1
59679 52965 52977 1
59680 52964 52980 1
59681 52982 52981 1
59682 52983 52982 1
59683 52984 52983 1
59684 52979 52981 1
59685 52978 52984 1
59686 52986 52985 1
59687 52987 52986 1
59688 52988 52987 1
59689 52984 52985 1
59690 52983 52988 1
59691 52990 52989 1
59692 52991 52990 1
59693 52973 52991 1
59694 52971 52989 1
59695 52993 52992 1
59696 52994 52993 1
59697 52995 52994 1
59698 52990 52992 1
59699 52989 52995 1
59700 52997 52996 1
59701 52998 52997 1
59702 52999 52998 1
59703 52994 52996 1
59704 52993 52999 1
59705 53001 53000 1
59706 52991 53001 1
59707 52976 53000 1
59708 53003 53002 1
59709 53004 53003 1
59710 53000 53004 1
59711 52975 53002 1
59712 53006 53005 1
59713 53007 53006 1
59714 52974 53007 1
59715 53002 53005 1
59716 53009 53008 1
59717 53010 53009 1
59718 53003 53008 1
59719 53005 53010 1
59720 53012 53011 1
59721 53013 53012 1
59722 53006 53011 1
59723 53010 53013 1
59724 53015 53014 1
59725 53016 53015 1
59726 53017 53016 1
59727 53012 53014 1
59728 53011 53017 1
59729 53019 53018 1
59730 53020 53019 1
59731 53009 53020 1
59732 53013 53018 1
59733 53014 53021 1
59734 53018 53022 1
59735 53021 53022 1
59736 52948 53023 1
59737 53023 53024 1
59738 53023 53025 1
59739 52980 53026 1
59740 53028 53027 1
59741 53029 53028 1
59742 53030 53029 1
59743 53020 53027 1
59744 53019 53030 1
59745 53032 53031 1
59746 53033 53032 1
59747 53034 53033 1
59748 53030 53031 1
59749 53029 53034 1
59750 53036 53035 1
59751 53037 53036 1
59752 53038 53037 1
59753 53033 53035 1
59754 53032 53038 1
59755 53040 53039 1
59756 53041 53040 1
59757 53031 53041 1
59758 53038 53039 1
59759 53043 53042 1
59760 53044 53043 1
59761 53037 53044 1
59762 53039 53042 1
59763 53046 53045 1
59764 53040 53046 1
59765 53022 53041 1
59766 53021 53045 1
59767 53048 53047 1
59768 53046 53048 1
59769 53042 53047 1
59770 53050 53049 1
59771 53051 53050 1
59772 53052 53051 1
59773 53048 53049 1
59774 53047 53052 1
59775 53052 53053 2
59776 52907 53054 1
59777 52907 53055 1
59778 52908 53056 1
59779 52908 53057 1
59780 52909 53058 1
59781 52910 53059 1
59782 52911 53060 1
59783 52911 53061 1
59784 52913 53062 1
59785 52914 53063 1
59786 52915 53064 1
59787 52915 53065 1
59788 52916 53066 1
59789 52916 53067 1
59790 52918 53068 1
59791 52919 53069 1
59792 52920 53070 1
59793 52920 53071 1
59794 52924 53072 1
59795 52929 53073 1
59796 52929 53074 1
59797 52930 53075 1
59798 52930 53076 1
59799 52931 53077 1
59800 52941 53079 1
59801 52941 53080 1
59802 52942 53081 1
59803 52943 53082 1
59804 52943 53083 1
59805 52944 53084 1
59806 52944 53085 1
59807 52947 53086 1
59808 52947 53087 1
59809 52948 53088 1
59810 52949 53089 1
59811 52949 53090 1
59812 52950 53091 1
59813 52950 53092 1
59814 52952 53093 1
59815 52956 53094 1
59816 52963 53095 1
59817 52969 53096 1
59818 52978 53097 1
59819 52979 53098 1
59820 52980 53099 1
59821 52981 53100 1
59822 52981 53101 1
59823 52982 53102 1
59824 52982 53103 1
59825 52983 53104 1
59826 52984 53105 1
59827 52985 53106 1
59828 52985 53107 1
59829 52986 53108 1
59830 52986 53109 1
59831 52987 53110 1
59832 52987 53111 1
59833 52988 53112 1
59834 52993 53113 1
59835 52994 53114 1
59836 52996 53115 1
59837 52996 53116 1
59838 52997 53117 1
59839 52997 53118 1
59840 52998 53119 1
59841 52998 53120 1
59842 52999 53121 1
59843 52999 53122 1
59844 53001 53123 1
59845 53004 53124 1
59846 53007 53125 1
59847 53011 53126 1
59848 53012 53127 1
59849 53014 53128 1
59850 53015 53129 1
59851 53015 53130 1
59852 53016 53131 1
59853 53016 53132 1
59854 53017 53133 1
59855 53017 53134 1
59856 53023 53135 1
59857 53024 53136 1
59858 53024 53137 1
59859 53024 53138 1
59860 53025 53139 1
59861 53025 53140 1
59862 53025 53141 1
59863 53026 53142 1
59864 53027 53143 1
59865 53028 53144 1
59866 53034 53145 1
59867 53035 53146 1
59868 53036 53147 1
59869 53043 53148 1
59870 53044 53149 1
59871 53045 53150 1
59872 53049 53151 1
59873 53049 53152 1
59874 53050 53153 1
59875 53050 53154 1
59876 53051 53155 1
59877 53051 53156 1
59878 52937 53078 1
59879 53159 53158 1
59880 53160 53159 1
59881 53161 53160 1
59882 53162 53161 1
59883 53157 53158 1
59884 53157 53162 1
59885 53164 53163 1
59886 53165 53164 1
59887 53166 53165 1
59888 53160 53163 1
59889 53159 53166 1
59890 53168 53167 1
59891 53169 53168 1
59892 53170 53169 1
59893 53164 53167 1
59894 53163 53170 1
59895 53172 53171 1
59896 53173 53172 1
59897 53174 53173 1
59898 53169 53171 1
59899 53168 53174 1
59900 53176 53175 1
59901 53177 53176 1
59902 53178 53177 1
59903 53173 53175 1
59904 53172 53178 1
59905 53180 53179 1
59906 53181 53180 1
59907 53171 53181 2
59908 53178 53179 1
59909 53183 53182 1
59910 53184 53183 1
59911 53185 53184 1
59912 53177 53182 1
59913 53176 53185 1
59914 53187 53186 1
59915 53188 53187 1
59916 53174 53186 1
59917 53175 53188 1
59918 53190 53189 2
59919 53191 53190 1
59920 53192 53191 1
59921 53187 53189 1
59922 53186 53192 2
59923 53194 53193 1
59924 53195 53194 1
59925 53196 53195 2
59926 53190 53193 1
59927 53189 53196 1
59928 53198 53197 1
59929 53199 53198 1
59930 53200 53199 1
59931 53196 53197 1
59932 53195 53200 1
59933 53202 53201 1
59934 53188 53202 1
59935 53185 53201 1
59936 53204 53203 1
59937 53205 53204 1
59938 53201 53205 1
59939 53184 53203 1
59940 53207 53206 1
59941 53208 53207 1
59942 53209 53208 1
59943 53204 53206 1
59944 53203 53209 1
59945 53211 53210 1
59946 53212 53211 1
59947 53213 53212 1
59948 53208 53210 1
59949 53207 53213 1
59950 53215 53214 1
59951 53216 53215 1
59952 53217 53216 1
59953 53212 53214 1
59954 53211 53217 1
59955 53219 53218 1
59956 53183 53219 1
59957 53209 53218 1
59958 53221 53220 1
59959 53218 53221 1
59960 53210 53220 1
59961 53223 53222 1
59962 53220 53223 1
59963 53217 53222 1
59964 53225 53224 1
59965 53226 53225 1
59966 53222 53226 1
59967 53216 53224 1
59968 53228 53227 1
59969 53229 53228 1
59970 53230 53229 1
59971 53215 53227 1
59972 53214 53230 1
59973 53232 53231 1
59974 53233 53232 1
59975 53234 53233 1
59976 53229 53231 1
59977 53228 53234 1
59978 53236 53235 1
59979 53237 53236 1
59980 53238 53237 1
59981 53234 53235 1
59982 53233 53238 1
59983 53240 53239 1
59984 53241 53240 1
59985 53223 53241 1
59986 53221 53239 1
59987 53243 53242 1
59988 53244 53243 1
59989 53245 53244 1
59990 53240 53242 1
59991 53239 53245 1
59992 53247 53246 1
59993 53248 53247 1
59994 53249 53248 1
59995 53244 53246 1
59996 53243 53249 1
59997 53251 53250 1
59998 53241 53251 1
59999 53226 53250 1
60000 53253 53252 1
60001 53254 53253 1
60002 53250 53254 1
60003 53225 53252 1
60004 53256 53255 1
60005 53257 53256 1
60006 53224 53257 1
60007 53252 53255 1
60008 53259 53258 1
60009 53260 53259 1
60010 53253 53258 1
60011 53255 53260 1
60012 53262 53261 1
60013 53263 53262 1
60014 53256 53261 1
60015 53260 53263 1
60016 53265 53264 1
60017 53266 53265 1
60018 53267 53266 1
60019 53262 53264 1
60020 53261 53267 1
60021 53269 53268 1
60022 53270 53269 1
60023 53259 53270 1
60024 53263 53268 1
60025 53264 53271 1
60026 53268 53272 1
60027 53271 53272 1
60028 53198 53273 1
60029 53273 53274 1
60030 53273 53275 1
60031 53230 53276 1
60032 53278 53277 1
60033 53279 53278 1
60034 53280 53279 1
60035 53270 53277 1
60036 53269 53280 1
60037 53282 53281 1
60038 53283 53282 1
60039 53284 53283 1
60040 53280 53281 1
60041 53279 53284 1
60042 53286 53285 1
60043 53287 53286 1
60044 53288 53287 1
60045 53283 53285 1
60046 53282 53288 1
60047 53290 53289 1
60048 53291 53290 1
60049 53281 53291 1
60050 53288 53289 1
60051 53293 53292 1
60052 53294 53293 1
60053 53287 53294 1
60054 53289 53292 1
60055 53296 53295 1
60056 53290 53296 1
60057 53272 53291 1
60058 53271 53295 1
60059 53298 53297 1
60060 53296 53298 1
60061 53292 53297 1
60062 53300 53299 1
60063 53301 53300 1
60064 53302 53301 1
60065 53298 53299 1
60066 53297 53302 1
60067 53302 53303 2
60068 53157 53304 1
60069 53157 53305 1
60070 53158 53306 1
60071 53158 53307 1
60072 53159 53308 1
60073 53160 53309 1
60074 53161 53310 1
60075 53161 53311 1
60076 53163 53312 1
60077 53164 53313 1
60078 53165 53314 1
60079 53165 53315 1
60080 53166 53316 1
60081 53166 53317 1
60082 53168 53318 1
60083 53169 53319 1
60084 53170 53320 1
60085 53170 53321 1
60086 53174 53322 1
60087 53179 53323 1
60088 53179 53324 1
60089 53180 53325 1
60090 53180 53326 1
60091 53181 53327 1
60092 53191 53329 1
60093 53191 53330 1
60094 53192 53331 1
60095 53193 53332 1
60096 53193 53333 1
60097 53194 53334 1
60098 53194 53335 1
60099 53197 53336 1
60100 53197 53337 1
60101 53198 53338 1
60102 53199 53339 1
60103 53199 53340 1
60104 53200 53341 1
60105 53200 53342 1
60106 53202 53343 1
60107 53206 53344 1
60108 53213 53345 1
60109 53219 53346 1
60110 53228 53347 1
60111 53229 53348 1
60112 53230 53349 1
60113 53231 53350 1
60114 53231 53351 1
60115 53232 53352 1
60116 53232 53353 1
60117 53233 53354 1
60118 53234 53355 1
60119 53235 53356 1
60120 53235 53357 1
60121 53236 53358 1
60122 53236 53359 1
60123 53237 53360 1
60124 53237 53361 1
60125 53238 53362 1
60126 53243 53363 1
60127 53244 53364 1
60128 53246 53365 1
60129 53246 53366 1
60130 53247 53367 1
60131 53247 53368 1
60132 53248 53369 1
60133 53248 53370 1
60134 53249 53371 1
60135 53249 53372 1
60136 53251 53373 1
60137 53254 53374 1
60138 53257 53375 1
60139 53261 53376 1
60140 53262 53377 1
60141 53264 53378 1
60142 53265 53379 1
60143 53265 53380 1
60144 53266 53381 1
60145 53266 53382 1
60146 53267 53383 1
60147 53267 53384 1
60148 53273 53385 1
60149 53274 53386 1
60150 53274 53387 1
60151 53274 53388 1
60152 53275 53389 1
60153 53275 53390 1
60154 53275 53391 1
60155 53276 53392 1
60156 53277 53393 1
60157 53278 53394 1
60158 53284 53395 1
60159 53285 53396 1
60160 53286 53397 1
60161 53293 53398 1
60162 53294 53399 1
60163 53295 53400 1
60164 53299 53401 1
60165 53299 53402 1
60166 53300 53403 1
60167 53300 53404 1
60168 53301 53405 1
60169 53301 53406 1
60170 53187 53328 1
60171 53409 53408 1
60172 53410 53409 1
60173 53411 53410 1
60174 53412 53411 1
60175 53407 53408 1
60176 53407 53412 1
60177 53414 53413 1
60178 53415 53414 1
60179 53416 53415 1
60180 53410 53413 1
60181 53409 53416 1
60182 53418 53417 1
60183 53419 53418 1
60184 53420 53419 1
60185 53414 53417 1
60186 53413 53420 1
60187 53422 53421 1
60188 53423 53422 1
60189 53424 53423 1
60190 53419 53421 1
60191 53418 53424 1
60192 53426 53425 1
60193 53427 53426 1
60194 53428 53427 1
60195 53423 53425 1
60196 53422 53428 1
60197 53430 53429 1
60198 53431 53430 1
60199 53421 53431 2
60200 53428 53429 1
60201 53433 53432 1
60202 53434 53433 1
60203 53435 53434 1
60204 53427 53432 1
60205 53426 53435 1
60206 53437 53436 1
60207 53438 53437 1
60208 53424 53436 1
60209 53425 53438 1
60210 53440 53439 2
60211 53441 53440 1
60212 53442 53441 1
60213 53437 53439 1
60214 53436 53442 2
60215 53444 53443 1
60216 53445 53444 1
60217 53446 53445 2
60218 53440 53443 1
60219 53439 53446 1
60220 53448 53447 1
60221 53449 53448 1
60222 53450 53449 1
60223 53446 53447 1
60224 53445 53450 1
60225 53452 53451 1
60226 53438 53452 1
60227 53435 53451 1
60228 53454 53453 1
60229 53455 53454 1
60230 53451 53455 1
60231 53434 53453 1
60232 53457 53456 1
60233 53458 53457 1
60234 53459 53458 1
60235 53454 53456 1
60236 53453 53459 1
60237 53461 53460 1
60238 53462 53461 1
60239 53463 53462 1
60240 53458 53460 1
60241 53457 53463 1
60242 53465 53464 1
60243 53466 53465 1
60244 53467 53466 1
60245 53462 53464 1
60246 53461 53467 1
60247 53469 53468 1
60248 53433 53469 1
60249 53459 53468 1
60250 53471 53470 1
60251 53468 53471 1
60252 53460 53470 1
60253 53473 53472 1
60254 53470 53473 1
60255 53467 53472 1
60256 53475 53474 1
60257 53476 53475 1
60258 53472 53476 1
60259 53466 53474 1
60260 53478 53477 1
60261 53479 53478 1
60262 53480 53479 1
60263 53465 53477 1
60264 53464 53480 1
60265 53482 53481 1
60266 53483 53482 1
60267 53484 53483 1
60268 53479 53481 1
60269 53478 53484 1
60270 53486 53485 1
60271 53487 53486 1
60272 53488 53487 1
60273 53484 53485 1
60274 53483 53488 1
60275 53490 53489 1
60276 53491 53490 1
60277 53473 53491 1
60278 53471 53489 1
60279 53493 53492 1
60280 53494 53493 1
60281 53495 53494 1
60282 53490 53492 1
60283 53489 53495 1
60284 53497 53496 1
60285 53498 53497 1
60286 53499 53498 1
60287 53494 53496 1
60288 53493 53499 1
60289 53501 53500 1
60290 53491 53501 1
60291 53476 53500 1
60292 53503 53502 1
60293 53504 53503 1
60294 53500 53504 1
60295 53475 53502 1
60296 53506 53505 1
60297 53507 53506 1
60298 53474 53507 1
60299 53502 53505 1
60300 53509 53508 1
60301 53510 53509 1
60302 53503 53508 1
60303 53505 53510 1
60304 53512 53511 1
60305 53513 53512 1
60306 53506 53511 1
60307 53510 53513 1
60308 53515 53514 1
60309 53516 53515 1
60310 53517 53516 1
60311 53512 53514 1
60312 53511 53517 1
60313 53519 53518 1
60314 53520 53519 1
60315 53509 53520 1
60316 53513 53518 1
60317 53514 53521 1
60318 53518 53522 1
60319 53521 53522 1
60320 53448 53523 1
60321 53523 53524 1
60322 53523 53525 1
60323 53480 53526 1
60324 53528 53527 1
60325 53529 53528 1
60326 53530 53529 1
60327 53520 53527 1
60328 53519 53530 1
60329 53532 53531 1
60330 53533 53532 1
60331 53534 53533 1
60332 53530 53531 1
60333 53529 53534 1
60334 53536 53535 1
60335 53537 53536 1
60336 53538 53537 1
60337 53533 53535 1
60338 53532 53538 1
60339 53540 53539 1
60340 53541 53540 1
60341 53531 53541 1
60342 53538 53539 1
60343 53543 53542 1
60344 53544 53543 1
60345 53537 53544 1
60346 53539 53542 1
60347 53546 53545 1
60348 53540 53546 1
60349 53522 53541 1
60350 53521 53545 1
60351 53548 53547 1
60352 53546 53548 1
60353 53542 53547 1
60354 53550 53549 1
60355 53551 53550 1
60356 53552 53551 1
60357 53548 53549 1
60358 53547 53552 1
60359 53552 53553 2
60360 53407 53554 1
60361 53407 53555 1
60362 53408 53556 1
60363 53408 53557 1
60364 53409 53558 1
60365 53410 53559 1
60366 53411 53560 1
60367 53411 53561 1
60368 53413 53562 1
60369 53414 53563 1
60370 53415 53564 1
60371 53415 53565 1
60372 53416 53566 1
60373 53416 53567 1
60374 53418 53568 1
60375 53419 53569 1
60376 53420 53570 1
60377 53420 53571 1
60378 53424 53572 1
60379 53429 53573 1
60380 53429 53574 1
60381 53430 53575 1
60382 53430 53576 1
60383 53431 53577 1
60384 53441 53579 1
60385 53441 53580 1
60386 53442 53581 1
60387 53443 53582 1
60388 53443 53583 1
60389 53444 53584 1
60390 53444 53585 1
60391 53447 53586 1
60392 53447 53587 1
60393 53448 53588 1
60394 53449 53589 1
60395 53449 53590 1
60396 53450 53591 1
60397 53450 53592 1
60398 53452 53593 1
60399 53456 53594 1
60400 53463 53595 1
60401 53469 53596 1
60402 53478 53597 1
60403 53479 53598 1
60404 53480 53599 1
60405 53481 53600 1
60406 53481 53601 1
60407 53482 53602 1
60408 53482 53603 1
60409 53483 53604 1
60410 53484 53605 1
60411 53485 53606 1
60412 53485 53607 1
60413 53486 53608 1
60414 53486 53609 1
60415 53487 53610 1
60416 53487 53611 1
60417 53488 53612 1
60418 53493 53613 1
60419 53494 53614 1
60420 53496 53615 1
60421 53496 53616 1
60422 53497 53617 1
60423 53497 53618 1
60424 53498 53619 1
60425 53498 53620 1
60426 53499 53621 1
60427 53499 53622 1
60428 53501 53623 1
60429 53504 53624 1
60430 53507 53625 1
60431 53511 53626 1
60432 53512 53627 1
60433 53514 53628 1
60434 53515 53629 1
60435 53515 53630 1
60436 53516 53631 1
60437 53516 53632 1
60438 53517 53633 1
60439 53517 53634 1
60440 53523 53635 1
60441 53524 53636 1
60442 53524 53637 1
60443 53524 53638 1
60444 53525 53639 1
60445 53525 53640 1
60446 53525 53641 1
60447 53526 53642 1
60448 53527 53643 1
60449 53528 53644 1
60450 53534 53645 1
60451 53535 53646 1
60452 53536 53647 1
60453 53543 53648 1
60454 53544 53649 1
60455 53545 53650 1
60456 53549 53651 1
60457 53549 53652 1
60458 53550 53653 1
60459 53550 53654 1
60460 53551 53655 1
60461 53551 53656 1
60462 53437 53578 1
60463 53659 53658 1
60464 53660 53659 1
60465 53661 53660 1
60466 53662 53661 1
60467 53657 53658 1
60468 53657 53662 1
60469 53664 53663 1
60470 53665 53664 1
60471 53666 53665 1
60472 53660 53663 1
60473 53659 53666 1
60474 53668 53667 1
60475 53669 53668 1
60476 53670 53669 1
60477 53664 53667 1
60478 53663 53670 1
60479 53672 53671 1
60480 53673 53672 1
60481 53674 53673 1
60482 53669 53671 1
60483 53668 53674 1
60484 53676 53675 1
60485 53677 53676 1
60486 53678 53677 1
60487 53673 53675 1
60488 53672 53678 1
60489 53680 53679 1
60490 53681 53680 1
60491 53671 53681 2
60492 53678 53679 1
60493 53683 53682 1
60494 53684 53683 1
60495 53685 53684 1
60496 53677 53682 1
60497 53676 53685 1
60498 53687 53686 1
60499 53688 53687 1
60500 53674 53686 1
60501 53675 53688 1
60502 53690 53689 2
60503 53691 53690 1
60504 53692 53691 1
60505 53687 53689 1
60506 53686 53692 2
60507 53694 53693 1
60508 53695 53694 1
60509 53696 53695 2
60510 53690 53693 1
60511 53689 53696 1
60512 53698 53697 1
60513 53699 53698 1
60514 53700 53699 1
60515 53696 53697 1
60516 53695 53700 1
60517 53702 53701 1
60518 53688 53702 1
60519 53685 53701 1
60520 53704 53703 1
60521 53705 53704 1
60522 53701 53705 1
60523 53684 53703 1
60524 53707 53706 1
60525 53708 53707 1
60526 53709 53708 1
60527 53704 53706 1
60528 53703 53709 1
60529 53711 53710 1
60530 53712 53711 1
60531 53713 53712 1
60532 53708 53710 1
60533 53707 53713 1
60534 53715 53714 1
60535 53716 53715 1
60536 53717 53716 1
60537 53712 53714 1
60538 53711 53717 1
60539 53719 53718 1
60540 53683 53719 1
60541 53709 53718 1
60542 53721 53720 1
60543 53718 53721 1
60544 53710 53720 1
60545 53723 53722 1
60546 53720 53723 1
60547 53717 53722 1
60548 53725 53724 1
60549 53726 53725 1
60550 53722 53726 1
60551 53716 53724 1
60552 53728 53727 1
60553 53729 53728 1
60554 53730 53729 1
60555 53715 53727 1
60556 53714 53730 1
60557 53732 53731 1
60558 53733 53732 1
60559 53734 53733 1
60560 53729 53731 1
60561 53728 53734 1
60562 53736 53735 1
60563 53737 53736 1
60564 53738 53737 1
60565 53734 53735 1
60566 53733 53738 1
60567 53740 53739 1
60568 53741 53740 1
60569 53723 53741 1
60570 53721 53739 1
60571 53743 53742 1
60572 53744 53743 1
60573 53745 53744 1
60574 53740 53742 1
60575 53739 53745 1
60576 53747 53746 1
60577 53748 53747 1
60578 53749 53748 1
60579 53744 53746 1
60580 53743 53749 1
60581 53751 53750 1
60582 53741 53751 1
60583 53726 53750 1
60584 53753 53752 1
60585 53754 53753 1
60586 53750 53754 1
60587 53725 53752 1
60588 53756 53755 1
60589 53757 53756 1
60590 53724 53757 1
60591 53752 53755 1
60592 53759 53758 1
60593 53760 53759 1
60594 53753 53758 1
60595 53755 53760 1
60596 53762 53761 1
60597 53763 53762 1
60598 53756 53761 1
60599 53760 53763 1
60600 53765 53764 1
60601 53766 53765 1
60602 53767 53766 1
60603 53762 53764 1
60604 53761 53767 1
60605 53769 53768 1
60606 53770 53769 1
60607 53759 53770 1
60608 53763 53768 1
60609 53764 53771 1
60610 53768 53772 1
60611 53771 53772 1
60612 53698 53773 1
60613 53773 53774 1
60614 53773 53775 1
60615 53730 53776 1
60616 53778 53777 1
60617 53779 53778 1
60618 53780 53779 1
60619 53770 53777 1
60620 53769 53780 1
60621 53782 53781 1
60622 53783 53782 1
60623 53784 53783 1
60624 53780 53781 1
60625 53779 53784 1
60626 53786 53785 1
60627 53787 53786 1
60628 53788 53787 1
60629 53783 53785 1
60630 53782 53788 1
60631 53790 53789 1
60632 53791 53790 1
60633 53781 53791 1
60634 53788 53789 1
60635 53793 53792 1
60636 53794 53793 1
60637 53787 53794 1
60638 53789 53792 1
60639 53796 53795 1
60640 53790 53796 1
60641 53772 53791 1
60642 53771 53795 1
60643 53798 53797 1
60644 53796 53798 1
60645 53792 53797 1
60646 53800 53799 1
60647 53801 53800 1
60648 53802 53801 1
60649 53798 53799 1
60650 53797 53802 1
60651 53802 53803 2
60652 53657 53804 1
60653 53657 53805 1
60654 53658 53806 1
60655 53658 53807 1
60656 53659 53808 1
60657 53660 53809 1
60658 53661 53810 1
60659 53661 53811 1
60660 53663 53812 1
60661 53664 53813 1
60662 53665 53814 1
60663 53665 53815 1
60664 53666 53816 1
60665 53666 53817 1
60666 53668 53818 1
60667 53669 53819 1
60668 53670 53820 1
60669 53670 53821 1
60670 53674 53822 1
60671 53679 53823 1
60672 53679 53824 1
60673 53680 53825 1
60674 53680 53826 1
60675 53681 53827 1
60676 53691 53829 1
60677 53691 53830 1
60678 53692 53831 1
60679 53693 53832 1
60680 53693 53833 1
60681 53694 53834 1
60682 53694 53835 1
60683 53697 53836 1
60684 53697 53837 1
60685 53698 53838 1
60686 53699 53839 1
60687 53699 53840 1
60688 53700 53841 1
60689 53700 53842 1
60690 53702 53843 1
60691 53706 53844 1
60692 53713 53845 1
60693 53719 53846 1
60694 53728 53847 1
60695 53729 53848 1
60696 53730 53849 1
60697 53731 53850 1
60698 53731 53851 1
60699 53732 53852 1
60700 53732 53853 1
60701 53733 53854 1
60702 53734 53855 1
60703 53735 53856 1
60704 53735 53857 1
60705 53736 53858 1
60706 53736 53859 1
60707 53737 53860 1
60708 53737 53861 1
60709 53738 53862 1
60710 53743 53863 1
60711 53744 53864 1
60712 53746 53865 1
60713 53746 53866 1
60714 53747 53867 1
60715 53747 53868 1
60716 53748 53869 1
60717 53748 53870 1
60718 53749 53871 1
60719 53749 53872 1
60720 53751 53873 1
60721 53754 53874 1
60722 53757 53875 1
60723 53761 53876 1
60724 53762 53877 1
60725 53764 53878 1
60726 53765 53879 1
60727 53765 53880 1
60728 53766 53881 1
60729 53766 53882 1
60730 53767 53883 1
60731 53767 53884 1
60732 53773 53885 1
60733 53774 53886 1
60734 53774 53887 1
60735 53774 53888 1
60736 53775 53889 1
60737 53775 53890 1
60738 53775 53891 1
60739 53776 53892 1
60740 53777 53893 1
60741 53778 53894 1
60742 53784 53895 1
60743 53785 53896 1
60744 53786 53897 1
60745 53793 53898 1
60746 53794 53899 1
60747 53795 53900 1
60748 53799 53901 1
60749 53799 53902 1
60750 53800 53903 1
60751 53800 53904 1
60752 53801 53905 1
60753 53801 53906 1
60754 53687 53828 1
60755 53909 53908 1
60756 53910 53909 1
60757 53911 53910 1
60758 53912 53911 1
60759 53907 53908 1
60760 53907 53912 1
60761 53914 53913 1
60762 53915 53914 1
60763 53916 53915 1
60764 53910 53913 1
60765 53909 53916 1
60766 53918 53917 1
60767 53919 53918 1
60768 53920 53919 1
60769 53914 53917 1
60770 53913 53920 1
60771 53922 53921 1
60772 53923 53922 1
60773 53924 53923 1
60774 53919 53921 1
60775 53918 53924 1
60776 53926 53925 1
60777 53927 53926 1
60778 53928 53927 1
60779 53923 53925 1
60780 53922 53928 1
60781 53930 53929 1
60782 53931 53930 1
60783 53921 53931 2
60784 53928 53929 1
60785 53933 53932 1
60786 53934 53933 1
60787 53935 53934 1
60788 53927 53932 1
60789 53926 53935 1
60790 53937 53936 1
60791 53938 53937 1
60792 53924 53936 1
60793 53925 53938 1
60794 53940 53939 2
60795 53941 53940 1
60796 53942 53941 1
60797 53937 53939 1
60798 53936 53942 2
60799 53944 53943 1
60800 53945 53944 1
60801 53946 53945 2
60802 53940 53943 1
60803 53939 53946 1
60804 53948 53947 1
60805 53949 53948 1
60806 53950 53949 1
60807 53946 53947 1
60808 53945 53950 1
60809 53952 53951 1
60810 53938 53952 1
60811 53935 53951 1
60812 53954 53953 1
60813 53955 53954 1
60814 53951 53955 1
60815 53934 53953 1
60816 53957 53956 1
60817 53958 53957 1
60818 53959 53958 1
60819 53954 53956 1
60820 53953 53959 1
60821 53961 53960 1
60822 53962 53961 1
60823 53963 53962 1
60824 53958 53960 1
60825 53957 53963 1
60826 53965 53964 1
60827 53966 53965 1
60828 53967 53966 1
60829 53962 53964 1
60830 53961 53967 1
60831 53969 53968 1
60832 53933 53969 1
60833 53959 53968 1
60834 53971 53970 1
60835 53968 53971 1
60836 53960 53970 1
60837 53973 53972 1
60838 53970 53973 1
60839 53967 53972 1
60840 53975 53974 1
60841 53976 53975 1
60842 53972 53976 1
60843 53966 53974 1
60844 53978 53977 1
60845 53979 53978 1
60846 53980 53979 1
60847 53965 53977 1
60848 53964 53980 1
60849 53982 53981 1
60850 53983 53982 1
60851 53984 53983 1
60852 53979 53981 1
60853 53978 53984 1
60854 53986 53985 1
60855 53987 53986 1
60856 53988 53987 1
60857 53984 53985 1
60858 53983 53988 1
60859 53990 53989 1
60860 53991 53990 1
60861 53973 53991 1
60862 53971 53989 1
60863 53993 53992 1
60864 53994 53993 1
60865 53995 53994 1
60866 53990 53992 1
60867 53989 53995 1
60868 53997 53996 1
60869 53998 53997 1
60870 53999 53998 1
60871 53994 53996 1
60872 53993 53999 1
60873 54001 54000 1
60874 53991 54001 1
60875 53976 54000 1
60876 54003 54002 1
60877 54004 54003 1
60878 54000 54004 1
60879 53975 54002 1
60880 54006 54005 1
60881 54007 54006 1
60882 53974 54007 1
60883 54002 54005 1
60884 54009 54008 1
60885 54010 54009 1
60886 54003 54008 1
60887 54005 54010 1
60888 54012 54011 1
60889 54013 54012 1
60890 54006 54011 1
60891 54010 54013 1
60892 54015 54014 1
60893 54016 54015 1
60894 54017 54016 1
60895 54012 54014 1
60896 54011 54017 1
60897 54019 54018 1
60898 54020 54019 1
60899 54009 54020 1
60900 54013 54018 1
60901 54014 54021 1
60902 54018 54022 1
60903 54021 54022 1
60904 53948 54023 1
60905 54023 54024 1
60906 54023 54025 1
60907 53980 54026 1
60908 54028 54027 1
60909 54029 54028 1
60910 54030 54029 1
60911 54020 54027 1
60912 54019 54030 1
60913 54032 54031 1
60914 54033 54032 1
60915 54034 54033 1
60916 54030 54031 1
60917 54029 54034 1
60918 54036 54035 1
60919 54037 54036 1
60920 54038 54037 1
60921 54033 54035 1
60922 54032 54038 1
60923 54040 54039 1
60924 54041 54040 1
60925 54031 54041 1
60926 54038 54039 1
60927 54043 54042 1
60928 54044 54043 1
60929 54037 54044 1
60930 54039 54042 1
60931 54046 54045 1
60932 54040 54046 1
60933 54022 54041 1
60934 54021 54045 1
60935 54048 54047 1
60936 54046 54048 1
60937 54042 54047 1
60938 54050 54049 1
60939 54051 54050 1
60940 54052 54051 1
60941 54048 54049 1
60942 54047 54052 1
60943 54052 54053 2
60944 53907 54054 1
60945 53907 54055 1
60946 53908 54056 1
60947 53908 54057 1
60948 53909 54058 1
60949 53910 54059 1
60950 53911 54060 1
60951 53911 54061 1
60952 53913 54062 1
60953 53914 54063 1
60954 53915 54064 1
60955 53915 54065 1
60956 53916 54066 1
60957 53916 54067 1
60958 53918 54068 1
60959 53919 54069 1
60960 53920 54070 1
60961 53920 54071 1
60962 53924 54072 1
60963 53929 54073 1
60964 53929 54074 1
60965 53930 54075 1
60966 53930 54076 1
60967 53931 54077 1
60968 53941 54079 1
60969 53941 54080 1
60970 53942 54081 1
60971 53943 54082 1
60972 53943 54083 1
60973 53944 54084 1
60974 53944 54085 1
60975 53947 54086 1
60976 53947 54087 1
60977 53948 54088 1
60978 53949 54089 1
60979 53949 54090 1
60980 53950 54091 1
60981 53950 54092 1
60982 53952 54093 1
60983 53956 54094 1
60984 53963 54095 1
60985 53969 54096 1
60986 53978 54097 1
60987 53979 54098 1
60988 53980 54099 1
60989 53981 54100 1
60990 53981 54101 1
60991 53982 54102 1
60992 53982 54103 1
60993 53983 54104 1
60994 53984 54105 1
60995 53985 54106 1
60996 53985 54107 1
60997 53986 54108 1
60998 53986 54109 1
60999 53987 54110 1
61000 53987 54111 1
61001 53988 54112 1
61002 53993 54113 1
61003 53994 54114 1
61004 53996 54115 1
61005 53996 54116 1
61006 53997 54117 1
61007 53997 54118 1
61008 53998 54119 1
61009 53998 54120 1
61010 53999 54121 1
61011 53999 54122 1
61012 54001 54123 1
61013 54004 54124 1
61014 54007 54125 1
61015 54011 54126 1
61016 54012 54127 1
61017 54014 54128 1
61018 54015 54129 1
61019 54015 54130 1
61020 54016 54131 1
61021 54016 54132 1
61022 54017 54133 1
61023 54017 54134 1
61024 54023 54135 1
61025 54024 54136 1
61026 54024 54137 1
61027 54024 54138 1
61028 54025 54139 1
61029 54025 54140 1
61030 54025 54141 1
61031 54026 54142 1
61032 54027 54143 1
61033 54028 54144 1
61034 54034 54145 1
61035 54035 54146 1
61036 54036 54147 1
61037 54043 54148 1
61038 54044 54149 1
61039 54045 54150 1
61040 54049 54151 1
61041 54049 54152 1
61042 54050 54153 1
61043 54050 54154 1
61044 54051 54155 1
61045 54051 54156 1
61046 53937 54078 1
61047 54159 54158 1
61048 54160 54159 1
61049 54161 54160 1
61050 54162 54161 1
61051 54157 54158 1
61052 54157 54162 1
61053 54164 54163 1
61054 54165 54164 1
61055 54166 54165 1
61056 54160 54163 1
61057 54159 54166 1
61058 54168 54167 1
61059 54169 54168 1
61060 54170 54169 1
61061 54164 54167 1
61062 54163 54170 1
61063 54172 54171 1
61064 54173 54172 1
61065 54174 54173 1
61066 54169 54171 1
61067 54168 54174 1
61068 54176 54175 1
61069 54177 54176 1
61070 54178 54177 1
61071 54173 54175 1
61072 54172 54178 1
61073 54180 54179 1
61074 54181 54180 1
61075 54171 54181 2
61076 54178 54179 1
61077 54183 54182 1
61078 54184 54183 1
61079 54185 54184 1
61080 54177 54182 1
61081 54176 54185 1
61082 54187 54186 1
61083 54188 54187 1
61084 54174 54186 1
61085 54175 54188 1
61086 54190 54189 2
61087 54191 54190 1
61088 54192 54191 1
61089 54187 54189 1
61090 54186 54192 2
61091 54194 54193 1
61092 54195 54194 1
61093 54196 54195 2
61094 54190 54193 1
61095 54189 54196 1
61096 54198 54197 1
61097 54199 54198 1
61098 54200 54199 1
61099 54196 54197 1
61100 54195 54200 1
61101 54202 54201 1
61102 54188 54202 1
61103 54185 54201 1
61104 54204 54203 1
61105 54205 54204 1
61106 54201 54205 1
61107 54184 54203 1
61108 54207 54206 1
61109 54208 54207 1
61110 54209 54208 1
61111 54204 54206 1
61112 54203 54209 1
61113 54211 54210 1
61114 54212 54211 1
61115 54213 54212 1
61116 54208 54210 1
61117 54207 54213 1
61118 54215 54214 1
61119 54216 54215 1
61120 54217 54216 1
61121 54212 54214 1
61122 54211 54217 1
61123 54219 54218 1
61124 54183 54219 1
61125 54209 54218 1
61126 54221 54220 1
61127 54218 54221 1
61128 54210 54220 1
61129 54223 54222 1
61130 54220 54223 1
61131 54217 54222 1
61132 54225 54224 1
61133 54226 54225 1
61134 54222 54226 1
61135 54216 54224 1
61136 54228 54227 1
61137 54229 54228 1
61138 54230 54229 1
61139 54215 54227 1
61140 54214 54230 1
61141 54232 54231 1
61142 54233 54232 1
61143 54234 54233 1
61144 54229 54231 1
61145 54228 54234 1
61146 54236 54235 1
61147 54237 54236 1
61148 54238 54237 1
61149 54234 54235 1
61150 54233 54238 1
61151 54240 54239 1
61152 54241 54240 1
61153 54223 54241 1
61154 54221 54239 1
61155 54243 54242 1
61156 54244 54243 1
61157 54245 54244 1
61158 54240 54242 1
61159 54239 54245 1
61160 54247 54246 1
61161 54248 54247 1
61162 54249 54248 1
61163 54244 54246 1
61164 54243 54249 1
61165 54251 54250 1
61166 54241 54251 1
61167 54226 54250 1
61168 54253 54252 1
61169 54254 54253 1
61170 54250 54254 1
61171 54225 54252 1
61172 54256 54255 1
61173 54257 54256 1
61174 54224 54257 1
61175 54252 54255 1
61176 54259 54258 1
61177 54260 54259 1
61178 54253 54258 1
61179 54255 54260 1
61180 54262 54261 1
61181 54263 54262 1
61182 54256 54261 1
61183 54260 54263 1
61184 54265 54264 1
61185 54266 54265 1
61186 54267 54266 1
61187 54262 54264 1
61188 54261 54267 1
61189 54269 54268 1
61190 54270 54269 1
61191 54259 54270 1
61192 54263 54268 1
61193 54264 54271 1
61194 54268 54272 1
61195 54271 54272 1
61196 54198 54273 1
61197 54273 54274 1
61198 54273 54275 1
61199 54230 54276 1
61200 54278 54277 1
61201 54279 54278 1
61202 54280 54279 1
61203 54270 54277 1
61204 54269 54280 1
61205 54282 54281 1
61206 54283 54282 1
61207 54284 54283 1
61208 54280 54281 1
61209 54279 54284 1
61210 54286 54285 1
61211 54287 54286 1
61212 54288 54287 1
61213 54283 54285 1
61214 54282 54288 1
61215 54290 54289 1
61216 54291 54290 1
61217 54281 54291 1
61218 54288 54289 1
61219 54293 54292 1
61220 54294 54293 1
61221 54287 54294 1
61222 54289 54292 1
61223 54296 54295 1
61224 54290 54296 1
61225 54272 54291 1
61226 54271 54295 1
61227 54298 54297 1
61228 54296 54298 1
61229 54292 54297 1
61230 54300 54299 1
61231 54301 54300 1
61232 54302 54301 1
61233 54298 54299 1
61234 54297 54302 1
61235 54302 54303 2
61236 54157 54304 1
61237 54157 54305 1
61238 54158 54306 1
61239 54158 54307 1
61240 54159 54308 1
61241 54160 54309 1
61242 54161 54310 1
61243 54161 54311 1
61244 54163 54312 1
61245 54164 54313 1
61246 54165 54314 1
61247 54165 54315 1
61248 54166 54316 1
61249 54166 54317 1
61250 54168 54318 1
61251 54169 54319 1
61252 54170 54320 1
61253 54170 54321 1
61254 54174 54322 1
61255 54179 54323 1
61256 54179 54324 1
61257 54180 54325 1
61258 54180 54326 1
61259 54181 54327 1
61260 54191 54329 1
61261 54191 54330 1
61262 54192 54331 1
61263 54193 54332 1
61264 54193 54333 1
61265 54194 54334 1
61266 54194 54335 1
61267 54197 54336 1
61268 54197 54337 1
61269 54198 54338 1
61270 54199 54339 1
61271 54199 54340 1
61272 54200 54341 1
61273 54200 54342 1
61274 54202 54343 1
61275 54206 54344 1
61276 54213 54345 1
61277 54219 54346 1
61278 54228 54347 1
61279 54229 54348 1
61280 54230 54349 1
61281 54231 54350 1
61282 54231 54351 1
61283 54232 54352 1
61284 54232 54353 1
61285 54233 54354 1
61286 54234 54355 1
61287 54235 54356 1
61288 54235 54357 1
61289 54236 54358 1
61290 54236 54359 1
61291 54237 54360 1
61292 54237 54361 1
61293 54238 54362 1
61294 54243 54363 1
61295 54244 54364 1
61296 54246 54365 1
61297 54246 54366 1
61298 54247 54367 1
61299 54247 54368 1
61300 54248 54369 1
61301 54248 54370 1
61302 54249 54371 1
61303 54249 54372 1
61304 54251 54373 1
61305 54254 54374 1
61306 54257 54375 1
61307 54261 54376 1
61308 54262 54377 1
61309 54264 54378 1
61310 54265 54379 1
61311 54265 54380 1
61312 54266 54381 1
61313 54266 54382 1
61314 54267 54383 1
61315 54267 54384 1
61316 54273 54385 1
61317 54274 54386 1
61318 54274 54387 1
61319 54274 54388 1
61320 54275 54389 1
61321 54275 54390 1
61322 54275 54391 1
61323 54276 54392 1
61324 54277 54393 1
61325 54278 54394 1
61326 54284 54395 1
61327 54285 54396 1
61328 54286 54397 1
61329 54293 54398 1
61330 54294 54399 1
61331 54295 54400 1
61332 54299 54401 1
61333 54299 54402 1
61334 54300 54403 1
61335 54300 54404 1
61336 54301 54405 1
61337 54301 54406 1
61338 54187 54328 1
61339 54409 54408 1
61340 54410 54409 1
61341 54411 54410 1
61342 54412 54411 1
61343 54407 54408 1
61344 54407 54412 1
61345 54414 54413 1
61346 54415 54414 1
61347 54416 54415 1
61348 54410 54413 1
61349 54409 54416 1
61350 54418 54417 1
61351 54419 54418 1
61352 54420 54419 1
61353 54414 54417 1
61354 54413 54420 1
61355 54422 54421 1
61356 54423 54422 1
61357 54424 54423 1
61358 54419 54421 1
61359 54418 54424 1
61360 54426 54425 1
61361 54427 54426 1
61362 54428 54427 1
61363 54423 54425 1
61364 54422 54428 1
61365 54430 54429 1
61366 54431 54430 1
61367 54421 54431 2
61368 54428 54429 1
61369 54433 54432 1
61370 54434 54433 1
61371 54435 54434 1
61372 54427 54432 1
61373 54426 54435 1
61374 54437 54436 1
61375 54438 54437 1
61376 54424 54436 1
61377 54425 54438 1
61378 54440 54439 2
61379 54441 54440 1
61380 54442 54441 1
61381 54437 54439 1
61382 54436 54442 2
61383 54444 54443 1
61384 54445 54444 1
61385 54446 54445 2
61386 54440 54443 1
61387 54439 54446 1
61388 54448 54447 1
61389 54449 54448 1
61390 54450 54449 1
61391 54446 54447 1
61392 54445 54450 1
61393 54452 54451 1
61394 54438 54452 1
61395 54435 54451 1
61396 54454 54453 1
61397 54455 54454 1
61398 54451 54455 1
61399 54434 54453 1
61400 54457 54456 1
61401 54458 54457 1
61402 54459 54458 1
61403 54454 54456 1
61404 54453 54459 1
61405 54461 54460 1
61406 54462 54461 1
61407 54463 54462 1
61408 54458 54460 1
61409 54457 54463 1
61410 54465 54464 1
61411 54466 54465 1
61412 54467 54466 1
61413 54462 54464 1
61414 54461 54467 1
61415 54469 54468 1
61416 54433 54469 1
61417 54459 54468 1
61418 54471 54470 1
61419 54468 54471 1
61420 54460 54470 1
61421 54473 54472 1
61422 54470 54473 1
61423 54467 54472 1
61424 54475 54474 1
61425 54476 54475 1
61426 54472 54476 1
61427 54466 54474 1
61428 54478 54477 1
61429 54479 54478 1
61430 54480 54479 1
61431 54465 54477 1
61432 54464 54480 1
61433 54482 54481 1
61434 54483 54482 1
61435 54484 54483 1
61436 54479 54481 1
61437 54478 54484 1
61438 54486 54485 1
61439 54487 54486 1
61440 54488 54487 1
61441 54484 54485 1
61442 54483 54488 1
61443 54490 54489 1
61444 54491 54490 1
61445 54473 54491 1
61446 54471 54489 1
61447 54493 54492 1
61448 54494 54493 1
61449 54495 54494 1
61450 54490 54492 1
61451 54489 54495 1
61452 54497 54496 1
61453 54498 54497 1
61454 54499 54498 1
61455 54494 54496 1
61456 54493 54499 1
61457 54501 54500 1
61458 54491 54501 1
61459 54476 54500 1
61460 54503 54502 1
61461 54504 54503 1
61462 54500 54504 1
61463 54475 54502 1
61464 54506 54505 1
61465 54507 54506 1
61466 54474 54507 1
61467 54502 54505 1
61468 54509 54508 1
61469 54510 54509 1
61470 54503 54508 1
61471 54505 54510 1
61472 54512 54511 1
61473 54513 54512 1
61474 54506 54511 1
61475 54510 54513 1
61476 54515 54514 1
61477 54516 54515 1
61478 54517 54516 1
61479 54512 54514 1
61480 54511 54517 1
61481 54519 54518 1
61482 54520 54519 1
61483 54509 54520 1
61484 54513 54518 1
61485 54514 54521 1
61486 54518 54522 1
61487 54521 54522 1
61488 54448 54523 1
61489 54523 54524 1
61490 54523 54525 1
61491 54480 54526 1
61492 54528 54527 1
61493 54529 54528 1
61494 54530 54529 1
61495 54520 54527 1
61496 54519 54530 1
61497 54532 54531 1
61498 54533 54532 1
61499 54534 54533 1
61500 54530 54531 1
61501 54529 54534 1
61502 54536 54535 1
61503 54537 54536 1
61504 54538 54537 1
61505 54533 54535 1
61506 54532 54538 1
61507 54540 54539 1
61508 54541 54540 1
61509 54531 54541 1
61510 54538 54539 1
61511 54543 54542 1
61512 54544 54543 1
61513 54537 54544 1
61514 54539 54542 1
61515 54546 54545 1
61516 54540 54546 1
61517 54522 54541 1
61518 54521 54545 1
61519 54548 54547 1
61520 54546 54548 1
61521 54542 54547 1
61522 54550 54549 1
61523 54551 54550 1
61524 54552 54551 1
61525 54548 54549 1
61526 54547 54552 1
61527 54552 54553 2
61528 54407 54554 1
61529 54407 54555 1
61530 54408 54556 1
61531 54408 54557 1
61532 54409 54558 1
61533 54410 54559 1
61534 54411 54560 1
61535 54411 54561 1
61536 54413 54562 1
61537 54414 54563 1
61538 54415 54564 1
61539 54415 54565 1
61540 54416 54566 1
61541 54416 54567 1
61542 54418 54568 1
61543 54419 54569 1
61544 54420 54570 1
61545 54420 54571 1
61546 54424 54572 1
61547 54429 54573 1
61548 54429 54574 1
61549 54430 54575 1
61550 54430 54576 1
61551 54431 54577 1
61552 54441 54579 1
61553 54441 54580 1
61554 54442 54581 1
61555 54443 54582 1
61556 54443 54583 1
61557 54444 54584 1
61558 54444 54585 1
61559 54447 54586 1
61560 54447 54587 1
61561 54448 54588 1
61562 54449 54589 1
61563 54449 54590 1
61564 54450 54591 1
61565 54450 54592 1
61566 54452 54593 1
61567 54456 54594 1
61568 54463 54595 1
61569 54469 54596 1
61570 54478 54597 1
61571 54479 54598 1
61572 54480 54599 1
61573 54481 54600 1
61574 54481 54601 1
61575 54482 54602 1
61576 54482 54603 1
61577 54483 54604 1
61578 54484 54605 1
61579 54485 54606 1
61580 54485 54607 1
61581 54486 54608 1
61582 54486 54609 1
61583 54487 54610 1
61584 54487 54611 1
61585 54488 54612 1
61586 54493 54613 1
61587 54494 54614 1
61588 54496 54615 1
61589 54496 54616 1
61590 54497 54617 1
61591 54497 54618 1
61592 54498 54619 1
61593 54498 54620 1
61594 54499 54621 1
61595 54499 54622 1
61596 54501 54623 1
61597 54504 54624 1
61598 54507 54625 1
61599 54511 54626 1
61600 54512 54627 1
61601 54514 54628 1
61602 54515 54629 1
61603 54515 54630 1
61604 54516 54631 1
61605 54516 54632 1
61606 54517 54633 1
61607 54517 54634 1
61608 54523 54635 1
61609 54524 54636 1
61610 54524 54637 1
61611 54524 54638 1
61612 54525 54639 1
61613 54525 54640 1
61614 54525 54641 1
61615 54526 54642 1
61616 54527 54643 1
61617 54528 54644 1
61618 54534 54645 1
61619 54535 54646 1
61620 54536 54647 1
61621 54543 54648 1
61622 54544 54649 1
61623 54545 54650 1
61624 54549 54651 1
61625 54549 54652 1
61626 54550 54653 1
61627 54550 54654 1
61628 54551 54655 1
61629 54551 54656 1
61630 54437 54578 1
61631 54659 54658 1
61632 54660 54659 1
61633 54661 54660 1
61634 54662 54661 1
61635 54657 54658 1
61636 54657 54662 1
61637 54664 54663 1
61638 54665 54664 1
61639 54666 54665 1
61640 54660 54663 1
61641 54659 54666 1
61642 54668 54667 1
61643 54669 54668 1
61644 54670 54669 1
61645 54664 54667 1
61646 54663 54670 1
61647 54672 54671 1
61648 54673 54672 1
61649 54674 54673 1
61650 54669 54671 1
61651 54668 54674 1
61652 54676 54675 1
61653 54677 54676 1
61654 54678 54677 1
61655 54673 54675 1
61656 54672 54678 1
61657 54680 54679 1
61658 54681 54680 1
61659 54671 54681 2
61660 54678 54679 1
61661 54683 54682 1
61662 54684 54683 1
61663 54685 54684 1
61664 54677 54682 1
61665 54676 54685 1
61666 54687 54686 1
61667 54688 54687 1
61668 54674 54686 1
61669 54675 54688 1
61670 54690 54689 2
61671 54691 54690 1
61672 54692 54691 1
61673 54687 54689 1
61674 54686 54692 2
61675 54694 54693 1
61676 54695 54694 1
61677 54696 54695 2
61678 54690 54693 1
61679 54689 54696 1
61680 54698 54697 1
61681 54699 54698 1
61682 54700 54699 1
61683 54696 54697 1
61684 54695 54700 1
61685 54702 54701 1
61686 54688 54702 1
61687 54685 54701 1
61688 54704 54703 1
61689 54705 54704 1
61690 54701 54705 1
61691 54684 54703 1
61692 54707 54706 1
61693 54708 54707 1
61694 54709 54708 1
61695 54704 54706 1
61696 54703 54709 1
61697 54711 54710 1
61698 54712 54711 1
61699 54713 54712 1
61700 54708 54710 1
61701 54707 54713 1
61702 54715 54714 1
61703 54716 54715 1
61704 54717 54716 1
61705 54712 54714 1
61706 54711 54717 1
61707 54719 54718 1
61708 54683 54719 1
61709 54709 54718 1
61710 54721 54720 1
61711 54718 54721 1
61712 54710 54720 1
61713 54723 54722 1
61714 54720 54723 1
61715 54717 54722 1
61716 54725 54724 1
61717 54726 54725 1
61718 54722 54726 1
61719 54716 54724 1
61720 54728 54727 1
61721 54729 54728 1
61722 54730 54729 1
61723 54715 54727 1
61724 54714 54730 1
61725 54732 54731 1
61726 54733 54732 1
61727 54734 54733 1
61728 54729 54731 1
61729 54728 54734 1
61730 54736 54735 1
61731 54737 54736 1
61732 54738 54737 1
61733 54734 54735 1
61734 54733 54738 1
61735 54740 54739 1
61736 54741 54740 1
61737 54723 54741 1
61738 54721 54739 1
61739 54743 54742 1
61740 54744 54743 1
61741 54745 54744 1
61742 54740 54742 1
61743 54739 54745 1
61744 54747 54746 1
61745 54748 54747 1
61746 54749 54748 1
61747 54744 54746 1
61748 54743 54749 1
61749 54751 54750 1
61750 54741 54751 1
61751 54726 54750 1
61752 54753 54752 1
61753 54754 54753 1
61754 54750 54754 1
61755 54725 54752 1
61756 54756 54755 1
61757 54757 54756 1
61758 54724 54757 1
61759 54752 54755 1
61760 54759 54758 1
61761 54760 54759 1
61762 54753 54758 1
61763 54755 54760 1
61764 54762 54761 1
61765 54763 54762 1
61766 54756 54761 1
61767 54760 54763 1
61768 54765 54764 1
61769 54766 54765 1
61770 54767 54766 1
61771 54762 54764 1
61772 54761 54767 1
61773 54769 54768 1
61774 54770 54769 1
61775 54759 54770 1
61776 54763 54768 1
61777 54764 54771 1
61778 54768 54772 1
61779 54771 54772 1
61780 54698 54773 1
61781 54773 54774 1
61782 54773 54775 1
61783 54730 54776 1
61784 54778 54777 1
61785 54779 54778 1
61786 54780 54779 1
61787 54770 54777 1
61788 54769 54780 1
61789 54782 54781 1
61790 54783 54782 1
61791 54784 54783 1
61792 54780 54781 1
61793 54779 54784 1
61794 54786 54785 1
61795 54787 54786 1
61796 54788 54787 1
61797 54783 54785 1
61798 54782 54788 1
61799 54790 54789 1
61800 54791 54790 1
61801 54781 54791 1
61802 54788 54789 1
61803 54793 54792 1
61804 54794 54793 1
61805 54787 54794 1
61806 54789 54792 1
61807 54796 54795 1
61808 54790 54796 1
61809 54772 54791 1
61810 54771 54795 1
61811 54798 54797 1
61812 54796 54798 1
61813 54792 54797 1
61814 54800 54799 1
61815 54801 54800 1
61816 54802 54801 1
61817 54798 54799 1
61818 54797 54802 1
61819 54802 54803 2
61820 54657 54804 1
61821 54657 54805 1
61822 54658 54806 1
61823 54658 54807 1
61824 54659 54808 1
61825 54660 54809 1
61826 54661 54810 1
61827 54661 54811 1
61828 54663 54812 1
61829 54664 54813 1
61830 54665 54814 1
61831 54665 54815 1
61832 54666 54816 1
61833 54666 54817 1
61834 54668 54818 1
61835 54669 54819 1
61836 54670 54820 1
61837 54670 54821 1
61838 54674 54822 1
61839 54679 54823 1
61840 54679 54824 1
61841 54680 54825 1
61842 54680 54826 1
61843 54681 54827 1
61844 54691 54829 1
61845 54691 54830 1
61846 54692 54831 1
61847 54693 54832 1
61848 54693 54833 1
61849 54694 54834 1
61850 54694 54835 1
61851 54697 54836 1
61852 54697 54837 1
61853 54698 54838 1
61854 54699 54839 1
61855 54699 54840 1
61856 54700 54841 1
61857 54700 54842 1
61858 54702 54843 1
61859 54706 54844 1
61860 54713 54845 1
61861 54719 54846 1
61862 54728 54847 1
61863 54729 54848 1
61864 54730 54849 1
61865 54731 54850 1
61866 54731 54851 1
61867 54732 54852 1
61868 54732 54853 1
61869 54733 54854 1
61870 54734 54855 1
61871 54735 54856 1
61872 54735 54857 1
61873 54736 54858 1
61874 54736 54859 1
61875 54737 54860 1
61876 54737 54861 1
61877 54738 54862 1
61878 54743 54863 1
61879 54744 54864 1
61880 54746 54865 1
61881 54746 54866 1
61882 54747 54867 1
61883 54747 54868 1
61884 54748 54869 1
61885 54748 54870 1
61886 54749 54871 1
61887 54749 54872 1
61888 54751 54873 1
61889 54754 54874 1
61890 54757 54875 1
61891 54761 54876 1
61892 54762 54877 1
61893 54764 54878 1
61894 54765 54879 1
61895 54765 54880 1
61896 54766 54881 1
61897 54766 54882 1
61898 54767 54883 1
61899 54767 54884 1
61900 54773 54885 1
61901 54774 54886 1
61902 54774 54887 1
61903 54774 54888 1
61904 54775 54889 1
61905 54775 54890 1
61906 54775 54891 1
61907 54776 54892 1
61908 54777 54893 1
61909 54778 54894 1
61910 54784 54895 1
61911 54785 54896 1
61912 54786 54897 1
61913 54793 54898 1
61914 54794 54899 1
61915 54795 54900 1
61916 54799 54901 1
61917 54799 54902 1
61918 54800 54903 1
61919 54800 54904 1
61920 54801 54905 1
61921 54801 54906 1
61922 54687 54828 1
61923 54909 54908 1
61924 54910 54909 1
61925 54911 54910 1
61926 54912 54911 1
61927 54907 54908 1
61928 54907 54912 1
61929 54914 54913 1
61930 54915 54914 1
61931 54916 54915 1
61932 54910 54913 1
61933 54909 54916 1
61934 54918 54917 1
61935 54919 54918 1
61936 54920 54919 1
61937 54914 54917 1
61938 54913 54920 1
61939 54922 54921 1
61940 54923 54922 1
61941 54924 54923 1
61942 54919 54921 1
61943 54918 54924 1
61944 54926 54925 1
61945 54927 54926 1
61946 54928 54927 1
61947 54923 54925 1
61948 54922 54928 1
61949 54930 54929 1
61950 54931 54930 1
61951 54921 54931 2
61952 54928 54929 1
61953 54933 54932 1
61954 54934 54933 1
61955 54935 54934 1
61956 54927 54932 1
61957 54926 54935 1
61958 54937 54936 1
61959 54938 54937 1
61960 54924 54936 1
61961 54925 54938 1
61962 54940 54939 2
61963 54941 54940 1
61964 54942 54941 1
61965 54937 54939 1
61966 54936 54942 2
61967 54944 54943 1
61968 54945 54944 1
61969 54946 54945 2
61970 54940 54943 1
61971 54939 54946 1
61972 54948 54947 1
61973 54949 54948 1
61974 54950 54949 1
61975 54946 54947 1
61976 54945 54950 1
61977 54952 54951 1
61978 54938 54952 1
61979 54935 54951 1
61980 54954 54953 1
61981 54955 54954 1
61982 54951 54955 1
61983 54934 54953 1
61984 54957 54956 1
61985 54958 54957 1
61986 54959 54958 1
61987 54954 54956 1
61988 54953 54959 1
61989 54961 54960 1
61990 54962 54961 1
61991 54963 54962 1
61992 54958 54960 1
61993 54957 54963 1
61994 54965 54964 1
61995 54966 54965 1
61996 54967 54966 1
61997 54962 54964 1
61998 54961 54967 1
61999 54969 54968 1
62000 54933 54969 1
62001 54959 54968 1
62002 54971 54970 1
62003 54968 54971 1
62004 54960 54970 1
62005 54973 54972 1
62006 54970 54973 1
62007 54967 54972 1
62008 54975 54974 1
62009 54976 54975 1
62010 54972 54976 1
62011 54966 54974 1
62012 54978 54977 1
62013 54979 54978 1
62014 54980 54979 1
62015 54965 54977 1
62016 54964 54980 1
62017 54982 54981 1
62018 54983 54982 1
62019 54984 54983 1
62020 54979 54981 1
62021 54978 54984 1
62022 54986 54985 1
62023 54987 54986 1
62024 54988 54987 1
62025 54984 54985 1
62026 54983 54988 1
62027 54990 54989 1
62028 54991 54990 1
62029 54973 54991 1
62030 54971 54989 1
62031 54993 54992 1
62032 54994 54993 1
62033 54995 54994 1
62034 54990 54992 1
62035 54989 54995 1
62036 54997 54996 1
62037 54998 54997 1
62038 54999 54998 1
62039 54994 54996 1
62040 54993 54999 1
62041 55001 55000 1
62042 54991 55001 1
62043 54976 55000 1
62044 55003 55002 1
62045 55004 55003 1
62046 55000 55004 1
62047 54975 55002 1
62048 55006 55005 1
62049 55007 55006 1
62050 54974 55007 1
62051 55002 55005 1
62052 55009 55008 1
62053 55010 55009 1
62054 55003 55008 1
62055 55005 55010 1
62056 55012 55011 1
62057 55013 55012 1
62058 55006 55011 1
62059 55010 55013 1
62060 55015 55014 1
62061 55016 55015 1
62062 55017 55016 1
62063 55012 55014 1
62064 55011 55017 1
62065 55019 55018 1
62066 55020 55019 1
62067 55009 55020 1
62068 55013 55018 1
62069 55014 55021 1
62070 55018 55022 1
62071 55021 55022 1
62072 54948 55023 1
62073 55023 55024 1
62074 55023 55025 1
62075 54980 55026 1
62076 55028 55027 1
62077 55029 55028 1
62078 55030 55029 1
62079 55020 55027 1
62080 55019 55030 1
62081 55032 55031 1
62082 55033 55032 1
62083 55034 55033 1
62084 55030 55031 1
62085 55029 55034 1
62086 55036 55035 1
62087 55037 55036 1
62088 55038 55037 1
62089 55033 55035 1
62090 55032 55038 1
62091 55040 55039 1
62092 55041 55040 1
62093 55031 55041 1
62094 55038 55039 1
62095 55043 55042 1
62096 55044 55043 1
62097 55037 55044 1
62098 55039 55042 1
62099 55046 55045 1
62100 55040 55046 1
62101 55022 55041 1
62102 55021 55045 1
62103 55048 55047 1
62104 55046 55048 1
62105 55042 55047 1
62106 55050 55049 1
62107 55051 55050 1
62108 55052 55051 1
62109 55048 55049 1
62110 55047 55052 1
62111 55052 55053 2
62112 54907 55054 1
62113 54907 55055 1
62114 54908 55056 1
62115 54908 55057 1
62116 54909 55058 1
62117 54910 55059 1
62118 54911 55060 1
62119 54911 55061 1
62120 54913 55062 1
62121 54914 55063 1
62122 54915 55064 1
62123 54915 55065 1
62124 54916 55066 1
62125 54916 55067 1
62126 54918 55068 1
62127 54919 55069 1
62128 54920 55070 1
62129 54920 55071 1
62130 54924 55072 1
62131 54929 55073 1
62132 54929 55074 1
62133 54930 55075 1
62134 54930 55076 1
62135 54931 55077 1
62136 54941 55079 1
62137 54941 55080 1
62138 54942 55081 1
62139 54943 55082 1
62140 54943 55083 1
62141 54944 55084 1
62142 54944 55085 1
62143 54947 55086 1
62144 54947 55087 1
62145 54948 55088 1
62146 54949 55089 1
62147 54949 55090 1
62148 54950 55091 1
62149 54950 55092 1
62150 54952 55093 1
62151 54956 55094 1
62152 54963 55095 1
62153 54969 55096 1
62154 54978 55097 1
62155 54979 55098 1
62156 54980 55099 1
62157 54981 55100 1
62158 54981 55101 1
62159 54982 55102 1
62160 54982 55103 1
62161 54983 55104 1
62162 54984 55105 1
62163 54985 55106 1
62164 54985 55107 1
62165 54986 55108 1
62166 54986 55109 1
62167 54987 55110 1
62168 54987 55111 1
62169 54988 55112 1
62170 54993 55113 1
62171 54994 55114 1
62172 54996 55115 1
62173 54996 55116 1
62174 54997 55117 1
62175 54997 55118 1
62176 54998 55119 1
62177 54998 55120 1
62178 54999 55121 1
62179 54999 55122 1
62180 55001 55123 1
62181 55004 55124 1
62182 55007 55125 1
62183 55011 55126 1
62184 55012 55127 1
62185 55014 55128 1
62186 55015 55129 1
62187 55015 55130 1
62188 55016 55131 1
62189 55016 55132 1
62190 55017 55133 1
62191 55017 55134 1
62192 55023 55135 1
62193 55024 55136 1
62194 55024 55137 1
62195 55024 55138 1
62196 55025 55139 1
62197 55025 55140 1
62198 55025 55141 1
62199 55026 55142 1
62200 55027 55143 1
62201 55028 55144 1
62202 55034 55145 1
62203 55035 55146 1
62204 55036 55147 1
62205 55043 55148 1
62206 55044 55149 1
62207 55045 55150 1
62208 55049 55151 1
62209 55049 55152 1
62210 55050 55153 1
62211 55050 55154 1
62212 55051 55155 1
62213 55051 55156 1
62214 54937 55078 1
62215 55159 55158 1
62216 55160 55159 1
62217 55161 55160 1
62218 55162 55161 1
62219 55157 55158 1
62220 55157 55162 1
62221 55164 55163 1
62222 55165 55164 1
62223 55166 55165 1
62224 55160 55163 1
62225 55159 55166 1
62226 55168 55167 1
62227 55169 55168 1
62228 55170 55169 1
62229 55164 55167 1
62230 55163 55170 1
62231 55172 55171 1
62232 55173 55172 1
62233 55174 55173 1
62234 55169 55171 1
62235 55168 55174 1
62236 55176 55175 1
62237 55177 55176 1
62238 55178 55177 1
62239 55173 55175 1
62240 55172 55178 1
62241 55180 55179 1
62242 55181 55180 1
62243 55171 55181 2
62244 55178 55179 1
62245 55183 55182 1
62246 55184 55183 1
62247 55185 55184 1
62248 55177 55182 1
62249 55176 55185 1
62250 55187 55186 1
62251 55188 55187 1
62252 55174 55186 1
62253 55175 55188 1
62254 55190 55189 2
62255 55191 55190 1
62256 55192 55191 1
62257 55187 55189 1
62258 55186 55192 2
62259 55194 55193 1
62260 55195 55194 1
62261 55196 55195 2
62262 55190 55193 1
62263 55189 55196 1
62264 55198 55197 1
62265 55199 55198 1
62266 55200 55199 1
62267 55196 55197 1
62268 55195 55200 1
62269 55202 55201 1
62270 55188 55202 1
62271 55185 55201 1
62272 55204 55203 1
62273 55205 55204 1
62274 55201 55205 1
62275 55184 55203 1
62276 55207 55206 1
62277 55208 55207 1
62278 55209 55208 1
62279 55204 55206 1
62280 55203 55209 1
62281 55211 55210 1
62282 55212 55211 1
62283 55213 55212 1
62284 55208 55210 1
62285 55207 55213 1
62286 55215 55214 1
62287 55216 55215 1
62288 55217 55216 1
62289 55212 55214 1
62290 55211 55217 1
62291 55219 55218 1
62292 55183 55219 1
62293 55209 55218 1
62294 55221 55220 1
62295 55218 55221 1
62296 55210 55220 1
62297 55223 55222 1
62298 55220 55223 1
62299 55217 55222 1
62300 55225 55224 1
62301 55226 55225 1
62302 55222 55226 1
62303 55216 55224 1
62304 55228 55227 1
62305 55229 55228 1
62306 55230 55229 1
62307 55215 55227 1
62308 55214 55230 1
62309 55232 55231 1
62310 55233 55232 1
62311 55234 55233 1
62312 55229 55231 1
62313 55228 55234 1
62314 55236 55235 1
62315 55237 55236 1
62316 55238 55237 1
62317 55234 55235 1
62318 55233 55238 1
62319 55240 55239 1
62320 55241 55240 1
62321 55223 55241 1
62322 55221 55239 1
62323 55243 55242 1
62324 55244 55243 1
62325 55245 55244 1
62326 55240 55242 1
62327 55239 55245 1
62328 55247 55246 1
62329 55248 55247 1
62330 55249 55248 1
62331 55244 55246 1
62332 55243 55249 1
62333 55251 55250 1
62334 55241 55251 1
62335 55226 55250 1
62336 55253 55252 1
62337 55254 55253 1
62338 55250 55254 1
62339 55225 55252 1
62340 55256 55255 1
62341 55257 55256 1
62342 55224 55257 1
62343 55252 55255 1
62344 55259 55258 1
62345 55260 55259 1
62346 55253 55258 1
62347 55255 55260 1
62348 55262 55261 1
62349 55263 55262 1
62350 55256 55261 1
62351 55260 55263 1
62352 55265 55264 1
62353 55266 55265 1
62354 55267 55266 1
62355 55262 55264 1
62356 55261 55267 1
62357 55269 55268 1
62358 55270 55269 1
62359 55259 55270 1
62360 55263 55268 1
62361 55264 55271 1
62362 55268 55272 1
62363 55271 55272 1
62364 55198 55273 1
62365 55273 55274 1
62366 55273 55275 1
62367 55230 55276 1
62368 55278 55277 1
62369 55279 55278 1
62370 55280 55279 1
62371 55270 55277 1
62372 55269 55280 1
62373 55282 55281 1
62374 55283 55282 1
62375 55284 55283 1
62376 55280 55281 1
62377 55279 55284 1
62378 55286 55285 1
62379 55287 55286 1
62380 55288 55287 1
62381 55283 55285 1
62382 55282 55288 1
62383 55290 55289 1
62384 55291 55290 1
62385 55281 55291 1
62386 55288 55289 1
62387 55293 55292 1
62388 55294 55293 1
62389 55287 55294 1
62390 55289 55292 1
62391 55296 55295 1
62392 55290 55296 1
62393 55272 55291 1
62394 55271 55295 1
62395 55298 55297 1
62396 55296 55298 1
62397 55292 55297 1
62398 55300 55299 1
62399 55301 55300 1
62400 55302 55301 1
62401 55298 55299 1
62402 55297 55302 1
62403 55302 55303 2
62404 55157 55304 1
62405 55157 55305 1
62406 55158 55306 1
62407 55158 55307 1
62408 55159 55308 1
62409 55160 55309 1
62410 55161 55310 1
62411 55161 55311 1
62412 55163 55312 1
62413 55164 55313 1
62414 55165 55314 1
62415 55165 55315 1
62416 55166 55316 1
62417 55166 55317 1
62418 55168 55318 1
62419 55169 55319 1
62420 55170 55320 1
62421 55170 55321 1
62422 55174 55322 1
62423 55179 55323 1
62424 55179 55324 1
62425 55180 55325 1
62426 55180 55326 1
62427 55181 55327 1
62428 55191 55329 1
62429 55191 55330 1
62430 55192 55331 1
62431 55193 55332 1
62432 55193 55333 1
62433 55194 55334 1
62434 55194 55335 1
62435 55197 55336 1
62436 55197 55337 1
62437 55198 55338 1
62438 55199 55339 1
62439 55199 55340 1
62440 55200 55341 1
62441 55200 55342 1
62442 55202 55343 1
62443 55206 55344 1
62444 55213 55345 1
62445 55219 55346 1
62446 55228 55347 1
62447 55229 55348 1
62448 55230 55349 1
62449 55231 55350 1
62450 55231 55351 1
62451 55232 55352 1
62452 55232 55353 1
62453 55233 55354 1
62454 55234 55355 1
62455 55235 55356 1
62456 55235 55357 1
62457 55236 55358 1
62458 55236 55359 1
62459 55237 55360 1
62460 55237 55361 1
62461 55238 55362 1
62462 55243 55363 1
62463 55244 55364 1
62464 55246 55365 1
62465 55246 55366 1
62466 55247 55367 1
62467 55247 55368 1
62468 55248 55369 1
62469 55248 55370 1
62470 55249 55371 1
62471 55249 55372 1
62472 55251 55373 1
62473 55254 55374 1
62474 55257 55375 1
62475 55261 55376 1
62476 55262 55377 1
62477 55264 55378 1
62478 55265 55379 1
62479 55265 55380 1
62480 55266 55381 1
62481 55266 55382 1
62482 55267 55383 1
62483 55267 55384 1
62484 55273 55385 1
62485 55274 55386 1
62486 55274 55387 1
62487 55274 55388 1
62488 55275 55389 1
62489 55275 55390 1
62490 55275 55391 1
62491 55276 55392 1
62492 55277 55393 1
62493 55278 55394 1
62494 55284 55395 1
62495 55285 55396 1
62496 55286 55397 1
62497 55293 55398 1
62498 55294 55399 1
62499 55295 55400 1
62500 55299 55401 1
62501 55299 55402 1
62502 55300 55403 1
62503 55300 55404 1
62504 55301 55405 1
62505 55301 55406 1
62506 55187 55328 1
62507 55409 55408 1
62508 55410 55409 1
62509 55411 55410 1
62510 55412 55411 1
62511 55407 55408 1
62512 55407 55412 1
62513 55414 55413 1
62514 55415 55414 1
62515 55416 55415 1
62516 55410 55413 1
62517 55409 55416 1
62518 55418 55417 1
62519 55419 55418 1
62520 55420 55419 1
62521 55414 55417 1
62522 55413 55420 1
62523 55422 55421 1
62524 55423 55422 1
62525 55424 55423 1
62526 55419 55421 1
62527 55418 55424 1
62528 55426 55425 1
62529 55427 55426 1
62530 55428 55427 1
62531 55423 55425 1
62532 55422 55428 1
62533 55430 55429 1
62534 55431 55430 1
62535 55421 55431 2
62536 55428 55429 1
62537 55433 55432 1
62538 55434 55433 1
62539 55435 55434 1
62540 55427 55432 1
62541 55426 55435 1
62542 55437 55436 1
62543 55438 55437 1
62544 55424 55436 1
62545 55425 55438 1
62546 55440 55439 2
62547 55441 55440 1
62548 55442 55441 1
62549 55437 55439 1
62550 55436 55442 2
62551 55444 55443 1
62552 55445 55444 1
62553 55446 55445 2
62554 55440 55443 1
62555 55439 55446 1
62556 55448 55447 1
62557 55449 55448 1
62558 55450 55449 1
62559 55446 55447 1
62560 55445 55450 1
62561 55452 55451 1
62562 55438 55452 1
62563 55435 55451 1
62564 55454 55453 1
62565 55455 55454 1
62566 55451 55455 1
62567 55434 55453 1
62568 55457 55456 1
62569 55458 55457 1
62570 55459 55458 1
62571 55454 55456 1
62572 55453 55459 1
62573 55461 55460 1
62574 55462 55461 1
62575 55463 55462 1
62576 55458 55460 1
62577 55457 55463 1
62578 55465 55464 1
62579 55466 55465 1
62580 55467 55466 1
62581 55462 55464 1
62582 55461 55467 1
62583 55469 55468 1
62584 55433 55469 1
62585 55459 55468 1
62586 55471 55470 1
62587 55468 55471 1
62588 55460 55470 1
62589 55473 55472 1
62590 55470 55473 1
62591 55467 55472 1
62592 55475 55474 1
62593 55476 55475 1
62594 55472 55476 1
62595 55466 55474 1
62596 55478 55477 1
62597 55479 55478 1
62598 55480 55479 1
62599 55465 55477 1
62600 55464 55480 1
62601 55482 55481 1
62602 55483 55482 1
62603 55484 55483 1
62604 55479 55481 1
62605 55478 55484 1
62606 55486 55485 1
62607 55487 55486 1
62608 55488 55487 1
62609 55484 55485 1
62610 55483 55488 1
62611 55490 55489 1
62612 55491 55490 1
62613 55473 55491 1
62614 55471 55489 1
62615 55493 55492 1
62616 55494 55493 1
62617 55495 55494 1
62618 55490 55492 1
62619 55489 55495 1
62620 55497 55496 1
62621 55498 55497 1
62622 55499 55498 1
62623 55494 55496 1
62624 55493 55499 1
62625 55501 55500 1
62626 55491 55501 1
62627 55476 55500 1
62628 55503 55502 1
62629 55504 55503 1
62630 55500 55504 1
62631 55475 55502 1
62632 55506 55505 1
62633 55507 55506 1
62634 55474 55507 1
62635 55502 55505 1
62636 55509 55508 1
62637 55510 55509 1
62638 55503 55508 1
62639 55505 55510 1
62640 55512 55511 1
62641 55513 55512 1
62642 55506 55511 1
62643 55510 55513 1
62644 55515 55514 1
62645 55516 55515 1
62646 55517 55516 1
62647 55512 55514 1
62648 55511 55517 1
62649 55519 55518 1
62650 55520 55519 1
62651 55509 55520 1
62652 55513 55518 1
62653 55514 55521 1
62654 55518 55522 1
62655 55521 55522 1
62656 55448 55523 1
62657 55523 55524 1
62658 55523 55525 1
62659 55480 55526 1
62660 55528 55527 1
62661 55529 55528 1
62662 55530 55529 1
62663 55520 55527 1
62664 55519 55530 1
62665 55532 55531 1
62666 55533 55532 1
62667 55534 55533 1
62668 55530 55531 1
62669 55529 55534 1
62670 55536 55535 1
62671 55537 55536 1
62672 55538 55537 1
62673 55533 55535 1
62674 55532 55538 1
62675 55540 55539 1
62676 55541 55540 1
62677 55531 55541 1
62678 55538 55539 1
62679 55543 55542 1
62680 55544 55543 1
62681 55537 55544 1
62682 55539 55542 1
62683 55546 55545 1
62684 55540 55546 1
62685 55522 55541 1
62686 55521 55545 1
62687 55548 55547 1
62688 55546 55548 1
62689 55542 55547 1
62690 55550 55549 1
62691 55551 55550 1
62692 55552 55551 1
62693 55548 55549 1
62694 55547 55552 1
62695 55552 55553 2
62696 55407 55554 1
62697 55407 55555 1
62698 55408 55556 1
62699 55408 55557 1
62700 55409 55558 1
62701 55410 55559 1
62702 55411 55560 1
62703 55411 55561 1
62704 55413 55562 1
62705 55414 55563 1
62706 55415 55564 1
62707 55415 55565 1
62708 55416 55566 1
62709 55416 55567 1
62710 55418 55568 1
62711 55419 55569 1
62712 55420 55570 1
62713 55420 55571 1
62714 55424 55572 1
62715 55429 55573 1
62716 55429 55574 1
62717 55430 55575 1
62718 55430 55576 1
62719 55431 55577 1
62720 55441 55579 1
62721 55441 55580 1
62722 55442 55581 1
62723 55443 55582 1
62724 55443 55583 1
62725 55444 55584 1
62726 55444 55585 1
62727 55447 55586 1
62728 55447 55587 1
62729 55448 55588 1
62730 55449 55589 1
62731 55449 55590 1
62732 55450 55591 1
62733 55450 55592 1
62734 55452 55593 1
62735 55456 55594 1
62736 55463 55595 1
62737 55469 55596 1
62738 55478 55597 1
62739 55479 55598 1
62740 55480 55599 1
62741 55481 55600 1
62742 55481 55601 1
62743 55482 55602 1
62744 55482 55603 1
62745 55483 55604 1
62746 55484 55605 1
62747 55485 55606 1
62748 55485 55607 1
62749 55486 55608 1
62750 55486 55609 1
62751 55487 55610 1
62752 55487 55611 1
62753 55488 55612 1
62754 55493 55613 1
62755 55494 55614 1
62756 55496 55615 1
62757 55496 55616 1
62758 55497 55617 1
62759 55497 55618 1
62760 55498 55619 1
62761 55498 55620 1
62762 55499 55621 1
62763 55499 55622 1
62764 55501 55623 1
62765 55504 55624 1
62766 55507 55625 1
62767 55511 55626 1
62768 55512 55627 1
62769 55514 55628 1
62770 55515 55629 1
62771 55515 55630 1
62772 55516 55631 1
62773 55516 55632 1
62774 55517 55633 1
62775 55517 55634 1
62776 55523 55635 1
62777 55524 55636 1
62778 55524 55637 1
62779 55524 55638 1
62780 55525 55639 1
62781 55525 55640 1
62782 55525 55641 1
62783 55526 55642 1
62784 55527 55643 1
62785 55528 55644 1
62786 55534 55645 1
62787 55535 55646 1
62788 55536 55647 1
62789 55543 55648 1
62790 55544 55649 1
62791 55545 55650 1
62792 55549 55651 1
62793 55549 55652 1
62794 55550 55653 1
62795 55550 55654 1
62796 55551 55655 1
62797 55551 55656 1
62798 55437 55578 1
62799 55659 55658 1
62800 55660 55659 1
62801 55661 55660 1
62802 55662 55661 1
62803 55657 55658 1
62804 55657 55662 1
62805 55664 55663 1
62806 55665 55664 1
62807 55666 55665 1
62808 55660 55663 1
62809 55659 55666 1
62810 55668 55667 1
62811 55669 55668 1
62812 55670 55669 1
62813 55664 55667 1
62814 55663 55670 1
62815 55672 55671 1
62816 55673 55672 1
62817 55674 55673 1
62818 55669 55671 1
62819 55668 55674 1
62820 55676 55675 1
62821 55677 55676 1
62822 55678 55677 1
62823 55673 55675 1
62824 55672 55678 1
62825 55680 55679 1
62826 55681 55680 1
62827 55671 55681 2
62828 55678 55679 1
62829 55683 55682 1
62830 55684 55683 1
62831 55685 55684 1
62832 55677 55682 1
62833 55676 55685 1
62834 55687 55686 1
62835 55688 55687 1
62836 55674 55686 1
62837 55675 55688 1
62838 55690 55689 2
62839 55691 55690 1
62840 55692 55691 1
62841 55687 55689 1
62842 55686 55692 2
62843 55694 55693 1
62844 55695 55694 1
62845 55696 55695 2
62846 55690 55693 1
62847 55689 55696 1
62848 55698 55697 1
62849 55699 55698 1
62850 55700 55699 1
62851 55696 55697 1
62852 55695 55700 1
62853 55702 55701 1
62854 55688 55702 1
62855 55685 55701 1
62856 55704 55703 1
62857 55705 55704 1
62858 55701 55705 1
62859 55684 55703 1
62860 55707 55706 1
62861 55708 55707 1
62862 55709 55708 1
62863 55704 55706 1
62864 55703 55709 1
62865 55711 55710 1
62866 55712 55711 1
62867 55713 55712 1
62868 55708 55710 1
62869 55707 55713 1
62870 55715 55714 1
62871 55716 55715 1
62872 55717 55716 1
62873 55712 55714 1
62874 55711 55717 1
62875 55719 55718 1
62876 55683 55719 1
62877 55709 55718 1
62878 55721 55720 1
62879 55718 55721 1
62880 55710 55720 1
62881 55723 55722 1
62882 55720 55723 1
62883 55717 55722 1
62884 55725 55724 1
62885 55726 55725 1
62886 55722 55726 1
62887 55716 55724 1
62888 55728 55727 1
62889 55729 55728 1
62890 55730 55729 1
62891 55715 55727 1
62892 55714 55730 1
62893 55732 55731 1
62894 55733 55732 1
62895 55734 55733 1
62896 55729 55731 1
62897 55728 55734 1
62898 55736 55735 1
62899 55737 55736 1
62900 55738 55737 1
62901 55734 55735 1
62902 55733 55738 1
62903 55740 55739 1
62904 55741 55740 1
62905 55723 55741 1
62906 55721 55739 1
62907 55743 55742 1
62908 55744 55743 1
62909 55745 55744 1
62910 55740 55742 1
62911 55739 55745 1
62912 55747 55746 1
62913 55748 55747 1
62914 55749 55748 1
62915 55744 55746 1
62916 55743 55749 1
62917 55751 55750 1
62918 55741 55751 1
62919 55726 55750 1
62920 55753 55752 1
62921 55754 55753 1
62922 55750 55754 1
62923 55725 55752 1
62924 55756 55755 1
62925 55757 55756 1
62926 55724 55757 1
62927 55752 55755 1
62928 55759 55758 1
62929 55760 55759 1
62930 55753 55758 1
62931 55755 55760 1
62932 55762 55761 1
62933 55763 55762 1
62934 55756 55761 1
62935 55760 55763 1
62936 55765 55764 1
62937 55766 55765 1
62938 55767 55766 1
62939 55762 55764 1
62940 55761 55767 1
62941 55769 55768 1
62942 55770 55769 1
62943 55759 55770 1
62944 55763 55768 1
62945 55764 55771 1
62946 55768 55772 1
62947 55771 55772 1
62948 55698 55773 1
62949 55773 55774 1
62950 55773 55775 1
62951 55730 55776 1
62952 55778 55777 1
62953 55779 55778 1
62954 55780 55779 1
62955 55770 55777 1
62956 55769 55780 1
62957 55782 55781 1
62958 55783 55782 1
62959 55784 55783 1
62960 55780 55781 1
62961 55779 55784 1
62962 55786 55785 1
62963 55787 55786 1
62964 55788 55787 1
62965 55783 55785 1
62966 55782 55788 1
62967 55790 55789 1
62968 55791 55790 1
62969 55781 55791 1
62970 55788 55789 1
62971 55793 55792 1
62972 55794 55793 1
62973 55787 55794 1
62974 55789 55792 1
62975 55796 55795 1
62976 55790 55796 1
62977 55772 55791 1
62978 55771 55795 1
62979 55798 55797 1
62980 55796 55798 1
62981 55792 55797 1
62982 55800 55799 1
62983 55801 55800 1
62984 55802 55801 1
62985 55798 55799 1
62986 55797 55802 1
62987 55802 55803 2
62988 55657 55804 1
62989 55657 55805 1
62990 55658 55806 1
62991 55658 55807 1
62992 55659 55808 1
62993 55660 55809 1
62994 55661 55810 1
62995 55661 55811 1
62996 55663 55812 1
62997 55664 55813 1
62998 55665 55814 1
62999 55665 55815 1
63000 55666 55816 1
63001 55666 55817 1
63002 55668 55818 1
63003 55669 55819 1
63004 55670 55820 1
63005 55670 55821 1
63006 55674 55822 1
63007 55679 55823 1
63008 55679 55824 1
63009 55680 55825 1
63010 55680 55826 1
63011 55681 55827 1
63012 55691 55829 1
63013 55691 55830 1
63014 55692 55831 1
63015 55693 55832 1
63016 55693 55833 1
63017 55694 55834 1
63018 55694 55835 1
63019 55697 55836 1
63020 55697 55837 1
63021 55698 55838 1
63022 55699 55839 1
63023 55699 55840 1
63024 55700 55841 1
63025 55700 55842 1
63026 55702 55843 1
63027 55706 55844 1
63028 55713 55845 1
63029 55719 55846 1
63030 55728 55847 1
63031 55729 55848 1
63032 55730 55849 1
63033 55731 55850 1
63034 55731 55851 1
63035 55732 55852 1
63036 55732 55853 1
63037 55733 55854 1
63038 55734 55855 1
63039 55735 55856 1
63040 55735 55857 1
63041 55736 55858 1
63042 55736 55859 1
63043 55737 55860 1
63044 55737 55861 1
63045 55738 55862 1
63046 55743 55863 1
63047 55744 55864 1
63048 55746 55865 1
63049 55746 55866 1
63050 55747 55867 1
63051 55747 55868 1
63052 55748 55869 1
63053 55748 55870 1
63054 55749 55871 1
63055 55749 55872 1
63056 55751 55873 1
63057 55754 55874 1
63058 55757 55875 1
63059 55761 55876 1
63060 55762 55877 1
63061 55764 55878 1
63062 55765 55879 1
63063 55765 55880 1
63064 55766 55881 1
63065 55766 55882 1
63066 55767 55883 1
63067 55767 55884 1
63068 55773 55885 1
63069 55774 55886 1
63070 55774 55887 1
63071 55774 55888 1
63072 55775 55889 1
63073 55775 55890 1
63074 55775 55891 1
63075 55776 55892 1
63076 55777 55893 1
63077 55778 55894 1
63078 55784 55895 1
63079 55785 55896 1
63080 55786 55897 1
63081 55793 55898 1
63082 55794 55899 1
63083 55795 55900 1
63084 55799 55901 1
63085 55799 55902 1
63086 55800 55903 1
63087 55800 55904 1
63088 55801 55905 1
63089 55801 55906 1
63090 55687 55828 1
63091 55909 55908 1
63092 55910 55909 1
63093 55911 55910 1
63094 55912 55911 1
63095 55907 55908 1
63096 55907 55912 1
63097 55914 55913 1
63098 55915 55914 1
63099 55916 55915 1
63100 55910 55913 1
63101 55909 55916 1
63102 55918 55917 1
63103 55919 55918 1
63104 55920 55919 1
63105 55914 55917 1
63106 55913 55920 1
63107 55922 55921 1
63108 55923 55922 1
63109 55924 55923 1
63110 55919 55921 1
63111 55918 55924 1
63112 55926 55925 1
63113 55927 55926 1
63114 55928 55927 1
63115 55923 55925 1
63116 55922 55928 1
63117 55930 55929 1
63118 55931 55930 1
63119 55921 55931 2
63120 55928 55929 1
63121 55933 55932 1
63122 55934 55933 1
63123 55935 55934 1
63124 55927 55932 1
63125 55926 55935 1
63126 55937 55936 1
63127 55938 55937 1
63128 55924 55936 1
63129 55925 55938 1
63130 55940 55939 2
63131 55941 55940 1
63132 55942 55941 1
63133 55937 55939 1
63134 55936 55942 2
63135 55944 55943 1
63136 55945 55944 1
63137 55946 55945 2
63138 55940 55943 1
63139 55939 55946 1
63140 55948 55947 1
63141 55949 55948 1
63142 55950 55949 1
63143 55946 55947 1
63144 55945 55950 1
63145 55952 55951 1
63146 55938 55952 1
63147 55935 55951 1
63148 55954 55953 1
63149 55955 55954 1
63150 55951 55955 1
63151 55934 55953 1
63152 55957 55956 1
63153 55958 55957 1
63154 55959 55958 1
63155 55954 55956 1
63156 55953 55959 1
63157 55961 55960 1
63158 55962 55961 1
63159 55963 55962 1
63160 55958 55960 1
63161 55957 55963 1
63162 55965 55964 1
63163 55966 55965 1
63164 55967 55966 1
63165 55962 55964 1
63166 55961 55967 1
63167 55969 55968 1
63168 55933 55969 1
63169 55959 55968 1
63170 55971 55970 1
63171 55968 55971 1
63172 55960 55970 1
63173 55973 55972 1
63174 55970 55973 1
63175 55967 55972 1
63176 55975 55974 1
63177 55976 55975 1
63178 55972 55976 1
63179 55966 55974 1
63180 55978 55977 1
63181 55979 55978 1
63182 55980 55979 1
63183 55965 55977 1
63184 55964 55980 1
63185 55982 55981 1
63186 55983 55982 1
63187 55984 55983 1
63188 55979 55981 1
63189 55978 55984 1
63190 55986 55985 1
63191 55987 55986 1
63192 55988 55987 1
63193 55984 55985 1
63194 55983 55988 1
63195 55990 55989 1
63196 55991 55990 1
63197 55973 55991 1
63198 55971 55989 1
63199 55993 55992 1
63200 55994 55993 1
63201 55995 55994 1
63202 55990 55992 1
63203 55989 55995 1
63204 55997 55996 1
63205 55998 55997 1
63206 55999 55998 1
63207 55994 55996 1
63208 55993 55999 1
63209 56001 56000 1
63210 55991 56001 1
63211 55976 56000 1
63212 56003 56002 1
63213 56004 56003 1
63214 56000 56004 1
63215 55975 56002 1
63216 56006 56005 1
63217 56007 56006 1
63218 55974 56007 1
63219 56002 56005 1
63220 56009 56008 1
63221 56010 56009 1
63222 56003 56008 1
63223 56005 56010 1
63224 56012 56011 1
63225 56013 56012 1
63226 56006 56011 1
63227 56010 56013 1
63228 56015 56014 1
63229 56016 56015 1
63230 56017 56016 1
63231 56012 56014 1
63232 56011 56017 1
63233 56019 56018 1
63234 56020 56019 1
63235 56009 56020 1
63236 56013 56018 1
63237 56014 56021 1
63238 56018 56022 1
63239 56021 56022 1
63240 55948 56023 1
63241 56023 56024 1
63242 56023 56025 1
63243 55980 56026 1
63244 56028 56027 1
63245 56029 56028 1
63246 56030 56029 1
63247 56020 56027 1
63248 56019 56030 1
63249 56032 56031 1
63250 56033 56032 1
63251 56034 56033 1
63252 56030 56031 1
63253 56029 56034 1
63254 56036 56035 1
63255 56037 56036 1
63256 56038 56037 1
63257 56033 56035 1
63258 56032 56038 1
63259 56040 56039 1
63260 56041 56040 1
63261 56031 56041 1
63262 56038 56039 1
63263 56043 56042 1
63264 56044 56043 1
63265 56037 56044 1
63266 56039 56042 1
63267 56046 56045 1
63268 56040 56046 1
63269 56022 56041 1
63270 56021 56045 1
63271 56048 56047 1
63272 56046 56048 1
63273 56042 56047 1
63274 56050 56049 1
63275 56051 56050 1
63276 56052 56051 1
63277 56048 56049 1
63278 56047 56052 1
63279 56052 56053 2
63280 55907 56054 1
63281 55907 56055 1
63282 55908 56056 1
63283 55908 56057 1
63284 55909 56058 1
63285 55910 56059 1
63286 55911 56060 1
63287 55911 56061 1
63288 55913 56062 1
63289 55914 56063 1
63290 55915 56064 1
63291 55915 56065 1
63292 55916 56066 1
63293 55916 56067 1
63294 55918 56068 1
63295 55919 56069 1
63296 55920 56070 1
63297 55920 56071 1
63298 55924 56072 1
63299 55929 56073 1
63300 55929 56074 1
63301 55930 56075 1
63302 55930 56076 1
63303 55931 56077 1
63304 55941 56079 1
63305 55941 56080 1
63306 55942 56081 1
63307 55943 56082 1
63308 55943 56083 1
63309 55944 56084 1
63310 55944 56085 1
63311 55947 56086 1
63312 55947 56087 1
63313 55948 56088 1
63314 55949 56089 1
63315 55949 56090 1
63316 55950 56091 1
63317 55950 56092 1
63318 55952 56093 1
63319 55956 56094 1
63320 55963 56095 1
63321 55969 56096 1
63322 55978 56097 1
63323 55979 56098 1
63324 55980 56099 1
63325 55981 56100 1
63326 55981 56101 1
63327 55982 56102 1
63328 55982 56103 1
63329 55983 56104 1
63330 55984 56105 1
63331 55985 56106 1
63332 55985 56107 1
63333 55986 56108 1
63334 55986 56109 1
63335 55987 56110 1
63336 55987 56111 1
63337 55988 56112 1
63338 55993 56113 1
63339 55994 56114 1
63340 55996 56115 1
63341 55996 56116 1
63342 55997 56117 1
63343 55997 56118 1
63344 55998 56119 1
63345 55998 56120 1
63346 55999 56121 1
63347 55999 56122 1
63348 56001 56123 1
63349 56004 56124 1
63350 56007 56125 1
63351 56011 56126 1
63352 56012 56127 1
63353 56014 56128 1
63354 56015 56129 1
63355 56015 56130 1
63356 56016 56131 1
63357 56016 56132 1
63358 56017 56133 1
63359 56017 56134 1
63360 56023 56135 1
63361 56024 56136 1
63362 56024 56137 1
63363 56024 56138 1
63364 56025 56139 1
63365 56025 56140 1
63366 56025 56141 1
63367 56026 56142 1
63368 56027 56143 1
63369 56028 56144 1
63370 56034 56145 1
63371 56035 56146 1
63372 56036 56147 1
63373 56043 56148 1
63374 56044 56149 1
63375 56045 56150 1
63376 56049 56151 1
63377 56049 56152 1
63378 56050 56153 1
63379 56050 56154 1
63380 56051 56155 1
63381 56051 56156 1
63382 55937 56078 1
63383 56159 56158 1
63384 56160 56159 1
63385 56161 56160 1
63386 56162 56161 1
63387 56157 56158 1
63388 56157 56162 1
63389 56164 56163 1
63390 56165 56164 1
63391 56166 56165 1
63392 56160 56163 1
63393 56159 56166 1
63394 56168 56167 1
63395 56169 56168 1
63396 56170 56169 1
63397 56164 56167 1
63398 56163 56170 1
63399 56172 56171 1
63400 56173 56172 1
63401 56174 56173 1
63402 56169 56171 1
63403 56168 56174 1
63404 56176 56175 1
63405 56177 56176 1
63406 56178 56177 1
63407 56173 56175 1
63408 56172 56178 1
63409 56180 56179 1
63410 56181 56180 1
63411 56171 56181 2
63412 56178 56179 1
63413 56183 56182 1
63414 56184 56183 1
63415 56185 56184 1
63416 56177 56182 1
63417 56176 56185 1
63418 56187 56186 1
63419 56188 56187 1
63420 56174 56186 1
63421 56175 56188 1
63422 56190 56189 2
63423 56191 56190 1
63424 56192 56191 1
63425 56187 56189 1
63426 56186 56192 2
63427 56194 56193 1
63428 56195 56194 1
63429 56196 56195 2
63430 56190 56193 1
63431 56189 56196 1
63432 56198 56197 1
63433 56199 56198 1
63434 56200 56199 1
63435 56196 56197 1
63436 56195 56200 1
63437 56202 56201 1
63438 56188 56202 1
63439 56185 56201 1
63440 56204 56203 1
63441 56205 56204 1
63442 56201 56205 1
63443 56184 56203 1
63444 56207 56206 1
63445 56208 56207 1
63446 56209 56208 1
63447 56204 56206 1
63448 56203 56209 1
63449 56211 56210 1
63450 56212 56211 1
63451 56213 56212 1
63452 56208 56210 1
63453 56207 56213 1
63454 56215 56214 1
63455 56216 56215 1
63456 56217 56216 1
63457 56212 56214 1
63458 56211 56217 1
63459 56219 56218 1
63460 56183 56219 1
63461 56209 56218 1
63462 56221 56220 1
63463 56218 56221 1
63464 56210 56220 1
63465 56223 56222 1
63466 56220 56223 1
63467 56217 56222 1
63468 56225 56224 1
63469 56226 56225 1
63470 56222 56226 1
63471 56216 56224 1
63472 56228 56227 1
63473 56229 56228 1
63474 56230 56229 1
63475 56215 56227 1
63476 56214 56230 1
63477 56232 56231 1
63478 56233 56232 1
63479 56234 56233 1
63480 56229 56231 1
63481 56228 56234 1
63482 56236 56235 1
63483 56237 56236 1
63484 56238 56237 1
63485 56234 56235 1
63486 56233 56238 1
63487 56240 56239 1
63488 56241 56240 1
63489 56223 56241 1
63490 56221 56239 1
63491 56243 56242 1
63492 56244 56243 1
63493 56245 56244 1
63494 56240 56242 1
63495 56239 56245 1
63496 56247 56246 1
63497 56248 56247 1
63498 56249 56248 1
63499 56244 56246 1
63500 56243 56249 1
63501 56251 56250 1
63502 56241 56251 1
63503 56226 56250 1
63504 56253 56252 1
63505 56254 56253 1
63506 56250 56254 1
63507 56225 56252 1
63508 56256 56255 1
63509 56257 56256 1
63510 56224 56257 1
63511 56252 56255 1
63512 56259 56258 1
63513 56260 56259 1
63514 56253 56258 1
63515 56255 56260 1
63516 56262 56261 1
63517 56263 56262 1
63518 56256 56261 1
63519 56260 56263 1
63520 56265 56264 1
63521 56266 56265 1
63522 56267 56266 1
63523 56262 56264 1
63524 56261 56267 1
63525 56269 56268 1
63526 56270 56269 1
63527 56259 56270 1
63528 56263 56268 1
63529 56264 56271 1
63530 56268 56272 1
63531 56271 56272 1
63532 56198 56273 1
63533 56273 56274 1
63534 56273 56275 1
63535 56230 56276 1
63536 56278 56277 1
63537 56279 56278 1
63538 56280 56279 1
63539 56270 56277 1
63540 56269 56280 1
63541 56282 56281 1
63542 56283 56282 1
63543 56284 56283 1
63544 56280 56281 1
63545 56279 56284 1
63546 56286 56285 1
63547 56287 56286 1
63548 56288 56287 1
63549 56283 56285 1
63550 56282 56288 1
63551 56290 56289 1
63552 56291 56290 1
63553 56281 56291 1
63554 56288 56289 1
63555 56293 56292 1
63556 56294 56293 1
63557 56287 56294 1
63558 56289 56292 1
63559 56296 56295 1
63560 56290 56296 1
63561 56272 56291 1
63562 56271 56295 1
63563 56298 56297 1
63564 56296 56298 1
63565 56292 56297 1
63566 56300 56299 1
63567 56301 56300 1
63568 56302 56301 1
63569 56298 56299 1
63570 56297 56302 1
63571 56302 56303 2
63572 56157 56304 1
63573 56157 56305 1
63574 56158 56306 1
63575 56158 56307 1
63576 56159 56308 1
63577 56160 56309 1
63578 56161 56310 1
63579 56161 56311 1
63580 56163 56312 1
63581 56164 56313 1
63582 56165 56314 1
63583 56165 56315 1
63584 56166 56316 1
63585 56166 56317 1
63586 56168 56318 1
63587 56169 56319 1
63588 56170 56320 1
63589 56170 56321 1
63590 56174 56322 1
63591 56179 56323 1
63592 56179 56324 1
63593 56180 56325 1
63594 56180 56326 1
63595 56181 56327 1
63596 56191 56329 1
63597 56191 56330 1
63598 56192 56331 1
63599 56193 56332 1
63600 56193 56333 1
63601 56194 56334 1
63602 56194 56335 1
63603 56197 56336 1
63604 56197 56337 1
63605 56198 56338 1
63606 56199 56339 1
63607 56199 56340 1
63608 56200 56341 1
63609 56200 56342 1
63610 56202 56343 1
63611 56206 56344 1
63612 56213 56345 1
63613 56219 56346 1
63614 56228 56347 1
63615 56229 56348 1
63616 56230 56349 1
63617 56231 56350 1
63618 56231 56351 1
63619 56232 56352 1
63620 56232 56353 1
63621 56233 56354 1
63622 56234 56355 1
63623 56235 56356 1
63624 56235 56357 1
63625 56236 56358 1
63626 56236 56359 1
63627 56237 56360 1
63628 56237 56361 1
63629 56238 56362 1
63630 56243 56363 1
63631 56244 56364 1
63632 56246 56365 1
63633 56246 56366 1
63634 56247 56367 1
63635 56247 56368 1
63636 56248 56369 1
63637 56248 56370 1
63638 56249 56371 1
63639 56249 56372 1
63640 56251 56373 1
63641 56254 56374 1
63642 56257 56375 1
63643 56261 56376 1
63644 56262 56377 1
63645 56264 56378 1
63646 56265 56379 1
63647 56265 56380 1
63648 56266 56381 1
63649 56266 56382 1
63650 56267 56383 1
63651 56267 56384 1
63652 56273 56385 1
63653 56274 56386 1
63654 56274 56387 1
63655 56274 56388 1
63656 56275 56389 1
63657 56275 56390 1
63658 56275 56391 1
63659 56276 56392 1
63660 56277 56393 1
63661 56278 56394 1
63662 56284 56395 1
63663 56285 56396 1
63664 56286 56397 1
63665 56293 56398 1
63666 56294 56399 1
63667 56295 56400 1
63668 56299 56401 1
63669 56299 56402 1
63670 56300 56403 1
63671 56300 56404 1
63672 56301 56405 1
63673 56301 56406 1
63674 56187 56328 1
@<TRIPOS>CRYSIN
105.151 105.151 105.151 90 90 90 1 1
