@<TRIPOS>MOLECULE
structure
480 0
SMALL
USER_CHARGES


@<TRIPOS>ATOM
1 Cu 1.27799 0.737848 1.65221 Cu 0.0 **** 0.0
2 Cu 3.83397 0.737848 1.65221 Cu 0.0 **** 0.0
3 Cu 6.38995 0.737848 1.65221 Cu 0.0 **** 0.0
4 Cu 8.94593 0.737848 1.65221 Cu 0.0 **** 0.0
5 Cu 11.5019 0.737848 1.65221 Cu 0.0 **** 0.0
6 Cu 14.0579 0.737848 1.65221 Cu 0.0 **** 0.0
7 Cu 16.6139 0.737848 1.65221 Cu 0.0 **** 0.0
8 Cu 19.1698 0.737848 1.65221 Cu 0.0 **** 0.0
9 Cu 4e-15 2.95139 1.65221 Cu 0.0 **** 0.0
10 Cu 2.55598 2.95139 1.65221 Cu 0.0 **** 0.0
11 Cu 5.11196 2.95139 1.65221 Cu 0.0 **** 0.0
12 Cu 7.66794 2.95139 1.65221 Cu 0.0 **** 0.0
13 Cu 10.2239 2.95139 1.65221 Cu 0.0 **** 0.0
14 Cu 12.7799 2.95139 1.65221 Cu 0.0 **** 0.0
15 Cu 15.3359 2.95139 1.65221 Cu 0.0 **** 0.0
16 Cu 17.8919 2.95139 1.65221 Cu 0.0 **** 0.0
17 Cu 1.27799 5.16493 1.65221 Cu 0.0 **** 0.0
18 Cu 3.83397 5.16493 1.65221 Cu 0.0 **** 0.0
19 Cu 6.38995 5.16493 1.65221 Cu 0.0 **** 0.0
20 Cu 8.94593 5.16493 1.65221 Cu 0.0 **** 0.0
21 Cu 11.5019 5.16493 1.65221 Cu 0.0 **** 0.0
22 Cu 14.0579 5.16493 1.65221 Cu 0.0 **** 0.0
23 Cu 16.6139 5.16493 1.65221 Cu 0.0 **** 0.0
24 Cu 19.1698 5.16493 1.65221 Cu 0.0 **** 0.0
25 Cu 4e-15 7.37848 1.65221 Cu 0.0 **** 0.0
26 Cu 2.55598 7.37848 1.65221 Cu 0.0 **** 0.0
27 Cu 5.11196 7.37848 1.65221 Cu 0.0 **** 0.0
28 Cu 7.66794 7.37848 1.65221 Cu 0.0 **** 0.0
29 Cu 10.2239 7.37848 1.65221 Cu 0.0 **** 0.0
30 Cu 12.7799 7.37848 1.65221 Cu 0.0 **** 0.0
31 Cu 15.3359 7.37848 1.65221 Cu 0.0 **** 0.0
32 Cu 17.8919 7.37848 1.65221 Cu 0.0 **** 0.0
33 Cu 1.27799 9.59202 1.65221 Cu 0.0 **** 0.0
34 Cu 3.83397 9.59202 1.65221 Cu 0.0 **** 0.0
35 Cu 6.38995 9.59202 1.65221 Cu 0.0 **** 0.0
36 Cu 8.94593 9.59202 1.65221 Cu 0.0 **** 0.0
37 Cu 11.5019 9.59202 1.65221 Cu 0.0 **** 0.0
38 Cu 14.0579 9.59202 1.65221 Cu 0.0 **** 0.0
39 Cu 16.6139 9.59202 1.65221 Cu 0.0 **** 0.0
40 Cu 19.1698 9.59202 1.65221 Cu 0.0 **** 0.0
41 Cu 3e-15 11.8056 1.65221 Cu 0.0 **** 0.0
42 Cu 2.55598 11.8056 1.65221 Cu 0.0 **** 0.0
43 Cu 5.11196 11.8056 1.65221 Cu 0.0 **** 0.0
44 Cu 7.66794 11.8056 1.65221 Cu 0.0 **** 0.0
45 Cu 10.2239 11.8056 1.65221 Cu 0.0 **** 0.0
46 Cu 12.7799 11.8056 1.65221 Cu 0.0 **** 0.0
47 Cu 15.3359 11.8056 1.65221 Cu 0.0 **** 0.0
48 Cu 17.8919 11.8056 1.65221 Cu 0.0 **** 0.0
49 Cu 1.27799 14.0191 1.65221 Cu 0.0 **** 0.0
50 Cu 3.83397 14.0191 1.65221 Cu 0.0 **** 0.0
51 Cu 6.38995 14.0191 1.65221 Cu 0.0 **** 0.0
52 Cu 8.94593 14.0191 1.65221 Cu 0.0 **** 0.0
53 Cu 11.5019 14.0191 1.65221 Cu 0.0 **** 0.0
54 Cu 14.0579 14.0191 1.65221 Cu 0.0 **** 0.0
55 Cu 16.6139 14.0191 1.65221 Cu 0.0 **** 0.0
56 Cu 19.1698 14.0191 1.65221 Cu 0.0 **** 0.0
57 Cu 3e-15 16.2326 1.65221 Cu 0.0 **** 0.0
58 Cu 2.55598 16.2326 1.65221 Cu 0.0 **** 0.0
59 Cu 5.11196 16.2326 1.65221 Cu 0.0 **** 0.0
60 Cu 7.66794 16.2326 1.65221 Cu 0.0 **** 0.0
61 Cu 10.2239 16.2326 1.65221 Cu 0.0 **** 0.0
62 Cu 12.7799 16.2326 1.65221 Cu 0.0 **** 0.0
63 Cu 15.3359 16.2326 1.65221 Cu 0.0 **** 0.0
64 Cu 17.8919 16.2326 1.65221 Cu 0.0 **** 0.0
65 Cu 1.27799 18.4462 1.65221 Cu 0.0 **** 0.0
66 Cu 3.83397 18.4462 1.65221 Cu 0.0 **** 0.0
67 Cu 6.38995 18.4462 1.65221 Cu 0.0 **** 0.0
68 Cu 8.94593 18.4462 1.65221 Cu 0.0 **** 0.0
69 Cu 11.5019 18.4462 1.65221 Cu 0.0 **** 0.0
70 Cu 14.0579 18.4462 1.65221 Cu 0.0 **** 0.0
71 Cu 16.6139 18.4462 1.65221 Cu 0.0 **** 0.0
72 Cu 19.1698 18.4462 1.65221 Cu 0.0 **** 0.0
73 Cu 2e-15 20.6597 1.65221 Cu 0.0 **** 0.0
74 Cu 2.55598 20.6597 1.65221 Cu 0.0 **** 0.0
75 Cu 5.11196 20.6597 1.65221 Cu 0.0 **** 0.0
76 Cu 7.66794 20.6597 1.65221 Cu 0.0 **** 0.0
77 Cu 10.2239 20.6597 1.65221 Cu 0.0 **** 0.0
78 Cu 12.7799 20.6597 1.65221 Cu 0.0 **** 0.0
79 Cu 15.3359 20.6597 1.65221 Cu 0.0 **** 0.0
80 Cu 17.8919 20.6597 1.65221 Cu 0.0 **** 0.0
81 Cu 1.27799 22.8733 1.65221 Cu 0.0 **** 0.0
82 Cu 3.83397 22.8733 1.65221 Cu 0.0 **** 0.0
83 Cu 6.38995 22.8733 1.65221 Cu 0.0 **** 0.0
84 Cu 8.94593 22.8733 1.65221 Cu 0.0 **** 0.0
85 Cu 11.5019 22.8733 1.65221 Cu 0.0 **** 0.0
86 Cu 14.0579 22.8733 1.65221 Cu 0.0 **** 0.0
87 Cu 16.6139 22.8733 1.65221 Cu 0.0 **** 0.0
88 Cu 19.1698 22.8733 1.65221 Cu 0.0 **** 0.0
89 Cu 2e-15 25.0868 1.65221 Cu 0.0 **** 0.0
90 Cu 2.55598 25.0868 1.65221 Cu 0.0 **** 0.0
91 Cu 5.11196 25.0868 1.65221 Cu 0.0 **** 0.0
92 Cu 7.66794 25.0868 1.65221 Cu 0.0 **** 0.0
93 Cu 10.2239 25.0868 1.65221 Cu 0.0 **** 0.0
94 Cu 12.7799 25.0868 1.65221 Cu 0.0 **** 0.0
95 Cu 15.3359 25.0868 1.65221 Cu 0.0 **** 0.0
96 Cu 17.8919 25.0868 1.65221 Cu 0.0 **** 0.0
97 Cu 0.0 -8e-15 3.73916 Cu 0.0 **** 0.0
98 Cu 2.55598 -8e-15 3.73916 Cu 0.0 **** 0.0
99 Cu 5.11196 -8e-15 3.73916 Cu 0.0 **** 0.0
100 Cu 7.66794 -8e-15 3.73916 Cu 0.0 **** 0.0
101 Cu 10.2239 -8e-15 3.73916 Cu 0.0 **** 0.0
102 Cu 12.7799 -8e-15 3.73916 Cu 0.0 **** 0.0
103 Cu 15.3359 -8e-15 3.73916 Cu 0.0 **** 0.0
104 Cu 17.8919 -8e-15 3.73916 Cu 0.0 **** 0.0
105 Cu 1.27799 2.21354 3.73916 Cu 0.0 **** 0.0
106 Cu 3.83397 2.21354 3.73916 Cu 0.0 **** 0.0
107 Cu 6.38995 2.21354 3.73916 Cu 0.0 **** 0.0
108 Cu 8.94593 2.21354 3.73916 Cu 0.0 **** 0.0
109 Cu 11.5019 2.21354 3.73916 Cu 0.0 **** 0.0
110 Cu 14.0579 2.21354 3.73916 Cu 0.0 **** 0.0
111 Cu 16.6139 2.21354 3.73916 Cu 0.0 **** 0.0
112 Cu 19.1698 2.21354 3.73916 Cu 0.0 **** 0.0
113 Cu 2e-15 4.42709 3.73916 Cu 0.0 **** 0.0
114 Cu 2.55598 4.42709 3.73916 Cu 0.0 **** 0.0
115 Cu 5.11196 4.42709 3.73916 Cu 0.0 **** 0.0
116 Cu 7.66794 4.42709 3.73916 Cu 0.0 **** 0.0
117 Cu 10.2239 4.42709 3.73916 Cu 0.0 **** 0.0
118 Cu 12.7799 4.42709 3.73916 Cu 0.0 **** 0.0
119 Cu 15.3359 4.42709 3.73916 Cu 0.0 **** 0.0
120 Cu 17.8919 4.42709 3.73916 Cu 0.0 **** 0.0
121 Cu 1.27799 6.64063 3.73916 Cu 0.0 **** 0.0
122 Cu 3.83397 6.64063 3.73916 Cu 0.0 **** 0.0
123 Cu 6.38995 6.64063 3.73916 Cu 0.0 **** 0.0
124 Cu 8.94593 6.64063 3.73916 Cu 0.0 **** 0.0
125 Cu 11.5019 6.64063 3.73916 Cu 0.0 **** 0.0
126 Cu 14.0579 6.64063 3.73916 Cu 0.0 **** 0.0
127 Cu 16.6139 6.64063 3.73916 Cu 0.0 **** 0.0
128 Cu 19.1698 6.64063 3.73916 Cu 0.0 **** 0.0
129 Cu -1e-15 8.85417 3.73916 Cu 0.0 **** 0.0
130 Cu 2.55598 8.85417 3.73916 Cu 0.0 **** 0.0
131 Cu 5.11196 8.85417 3.73916 Cu 0.0 **** 0.0
132 Cu 7.66794 8.85417 3.73916 Cu 0.0 **** 0.0
133 Cu 10.2239 8.85417 3.73916 Cu 0.0 **** 0.0
134 Cu 12.7799 8.85417 3.73916 Cu 0.0 **** 0.0
135 Cu 15.3359 8.85417 3.73916 Cu 0.0 **** 0.0
136 Cu 17.8919 8.85417 3.73916 Cu 0.0 **** 0.0
137 Cu 1.27799 11.0677 3.73916 Cu 0.0 **** 0.0
138 Cu 3.83397 11.0677 3.73916 Cu 0.0 **** 0.0
139 Cu 6.38995 11.0677 3.73916 Cu 0.0 **** 0.0
140 Cu 8.94593 11.0677 3.73916 Cu 0.0 **** 0.0
141 Cu 11.5019 11.0677 3.73916 Cu 0.0 **** 0.0
142 Cu 14.0579 11.0677 3.73916 Cu 0.0 **** 0.0
143 Cu 16.6139 11.0677 3.73916 Cu 0.0 **** 0.0
144 Cu 19.1698 11.0677 3.73916 Cu 0.0 **** 0.0
145 Cu 1e-15 13.2813 3.73916 Cu 0.0 **** 0.0
146 Cu 2.55598 13.2813 3.73916 Cu 0.0 **** 0.0
147 Cu 5.11196 13.2813 3.73916 Cu 0.0 **** 0.0
148 Cu 7.66794 13.2813 3.73916 Cu 0.0 **** 0.0
149 Cu 10.2239 13.2813 3.73916 Cu 0.0 **** 0.0
150 Cu 12.7799 13.2813 3.73916 Cu 0.0 **** 0.0
151 Cu 15.3359 13.2813 3.73916 Cu 0.0 **** 0.0
152 Cu 17.8919 13.2813 3.73916 Cu 0.0 **** 0.0
153 Cu 1.27799 15.4948 3.73916 Cu 0.0 **** 0.0
154 Cu 3.83397 15.4948 3.73916 Cu 0.0 **** 0.0
155 Cu 6.38995 15.4948 3.73916 Cu 0.0 **** 0.0
156 Cu 8.94593 15.4948 3.73916 Cu 0.0 **** 0.0
157 Cu 11.5019 15.4948 3.73916 Cu 0.0 **** 0.0
158 Cu 14.0579 15.4948 3.73916 Cu 0.0 **** 0.0
159 Cu 16.6139 15.4948 3.73916 Cu 0.0 **** 0.0
160 Cu 19.1698 15.4948 3.73916 Cu 0.0 **** 0.0
161 Cu -2e-15 17.7083 3.73916 Cu 0.0 **** 0.0
162 Cu 2.55598 17.7083 3.73916 Cu 0.0 **** 0.0
163 Cu 5.11196 17.7083 3.73916 Cu 0.0 **** 0.0
164 Cu 7.66794 17.7083 3.73916 Cu 0.0 **** 0.0
165 Cu 10.2239 17.7083 3.73916 Cu 0.0 **** 0.0
166 Cu 12.7799 17.7083 3.73916 Cu 0.0 **** 0.0
167 Cu 15.3359 17.7083 3.73916 Cu 0.0 **** 0.0
168 Cu 17.8919 17.7083 3.73916 Cu 0.0 **** 0.0
169 Cu 1.27799 19.9219 3.73916 Cu 0.0 **** 0.0
170 Cu 3.83397 19.9219 3.73916 Cu 0.0 **** 0.0
171 Cu 6.38995 19.9219 3.73916 Cu 0.0 **** 0.0
172 Cu 8.94593 19.9219 3.73916 Cu 0.0 **** 0.0
173 Cu 11.5019 19.9219 3.73916 Cu 0.0 **** 0.0
174 Cu 14.0579 19.9219 3.73916 Cu 0.0 **** 0.0
175 Cu 16.6139 19.9219 3.73916 Cu 0.0 **** 0.0
176 Cu 19.1698 19.9219 3.73916 Cu 0.0 **** 0.0
177 Cu 0.0 22.1354 3.73916 Cu 0.0 **** 0.0
178 Cu 2.55598 22.1354 3.73916 Cu 0.0 **** 0.0
179 Cu 5.11196 22.1354 3.73916 Cu 0.0 **** 0.0
180 Cu 7.66794 22.1354 3.73916 Cu 0.0 **** 0.0
181 Cu 10.2239 22.1354 3.73916 Cu 0.0 **** 0.0
182 Cu 12.7799 22.1354 3.73916 Cu 0.0 **** 0.0
183 Cu 15.3359 22.1354 3.73916 Cu 0.0 **** 0.0
184 Cu 17.8919 22.1354 3.73916 Cu 0.0 **** 0.0
185 Cu 1.27799 24.349 3.73916 Cu 0.0 **** 0.0
186 Cu 3.83397 24.349 3.73916 Cu 0.0 **** 0.0
187 Cu 6.38995 24.349 3.73916 Cu 0.0 **** 0.0
188 Cu 8.94593 24.349 3.73916 Cu 0.0 **** 0.0
189 Cu 11.5019 24.349 3.73916 Cu 0.0 **** 0.0
190 Cu 14.0579 24.349 3.73916 Cu 0.0 **** 0.0
191 Cu 16.6139 24.349 3.73916 Cu 0.0 **** 0.0
192 Cu 19.1698 24.349 3.73916 Cu 0.0 **** 0.0
193 Cu 2e-15 1.4757 5.8261 Cu 0.0 **** 0.0
194 Cu 2.55598 1.4757 5.8261 Cu 0.0 **** 0.0
195 Cu 5.11196 1.4757 5.8261 Cu 0.0 **** 0.0
196 Cu 7.66794 1.4757 5.8261 Cu 0.0 **** 0.0
197 Cu 10.2239 1.4757 5.8261 Cu 0.0 **** 0.0
198 Cu 12.7799 1.4757 5.8261 Cu 0.0 **** 0.0
199 Cu 15.3359 1.4757 5.8261 Cu 0.0 **** 0.0
200 Cu 17.8919 1.4757 5.8261 Cu 0.0 **** 0.0
201 Cu 1.27799 3.68924 5.8261 Cu 0.0 **** 0.0
202 Cu 3.83397 3.68924 5.8261 Cu 0.0 **** 0.0
203 Cu 6.38995 3.68924 5.8261 Cu 0.0 **** 0.0
204 Cu 8.94593 3.68924 5.8261 Cu 0.0 **** 0.0
205 Cu 11.5019 3.68924 5.8261 Cu 0.0 **** 0.0
206 Cu 14.0579 3.68924 5.8261 Cu 0.0 **** 0.0
207 Cu 16.6139 3.68924 5.8261 Cu 0.0 **** 0.0
208 Cu 19.1698 3.68924 5.8261 Cu 0.0 **** 0.0
209 Cu 4e-15 5.90278 5.8261 Cu 0.0 **** 0.0
210 Cu 2.55598 5.90278 5.8261 Cu 0.0 **** 0.0
211 Cu 5.11196 5.90278 5.8261 Cu 0.0 **** 0.0
212 Cu 7.66794 5.90278 5.8261 Cu 0.0 **** 0.0
213 Cu 10.2239 5.90278 5.8261 Cu 0.0 **** 0.0
214 Cu 12.7799 5.90278 5.8261 Cu 0.0 **** 0.0
215 Cu 15.3359 5.90278 5.8261 Cu 0.0 **** 0.0
216 Cu 17.8919 5.90278 5.8261 Cu 0.0 **** 0.0
217 Cu 1.27799 8.11632 5.8261 Cu 0.0 **** 0.0
218 Cu 3.83397 8.11632 5.8261 Cu 0.0 **** 0.0
219 Cu 6.38995 8.11632 5.8261 Cu 0.0 **** 0.0
220 Cu 8.94593 8.11632 5.8261 Cu 0.0 **** 0.0
221 Cu 11.5019 8.11632 5.8261 Cu 0.0 **** 0.0
222 Cu 14.0579 8.11632 5.8261 Cu 0.0 **** 0.0
223 Cu 16.6139 8.11632 5.8261 Cu 0.0 **** 0.0
224 Cu 19.1698 8.11632 5.8261 Cu 0.0 **** 0.0
225 Cu 1e-15 10.3299 5.8261 Cu 0.0 **** 0.0
226 Cu 2.55598 10.3299 5.8261 Cu 0.0 **** 0.0
227 Cu 5.11196 10.3299 5.8261 Cu 0.0 **** 0.0
228 Cu 7.66794 10.3299 5.8261 Cu 0.0 **** 0.0
229 Cu 10.2239 10.3299 5.8261 Cu 0.0 **** 0.0
230 Cu 12.7799 10.3299 5.8261 Cu 0.0 **** 0.0
231 Cu 15.3359 10.3299 5.8261 Cu 0.0 **** 0.0
232 Cu 17.8919 10.3299 5.8261 Cu 0.0 **** 0.0
233 Cu 1.27799 12.5434 5.8261 Cu 0.0 **** 0.0
234 Cu 3.83397 12.5434 5.8261 Cu 0.0 **** 0.0
235 Cu 6.38995 12.5434 5.8261 Cu 0.0 **** 0.0
236 Cu 8.94593 12.5434 5.8261 Cu 0.0 **** 0.0
237 Cu 11.5019 12.5434 5.8261 Cu 0.0 **** 0.0
238 Cu 14.0579 12.5434 5.8261 Cu 0.0 **** 0.0
239 Cu 16.6139 12.5434 5.8261 Cu 0.0 **** 0.0
240 Cu 19.1698 12.5434 5.8261 Cu 0.0 **** 0.0
241 Cu 3e-15 14.757 5.8261 Cu 0.0 **** 0.0
242 Cu 2.55598 14.757 5.8261 Cu 0.0 **** 0.0
243 Cu 5.11196 14.757 5.8261 Cu 0.0 **** 0.0
244 Cu 7.66794 14.757 5.8261 Cu 0.0 **** 0.0
245 Cu 10.2239 14.757 5.8261 Cu 0.0 **** 0.0
246 Cu 12.7799 14.757 5.8261 Cu 0.0 **** 0.0
247 Cu 15.3359 14.757 5.8261 Cu 0.0 **** 0.0
248 Cu 17.8919 14.757 5.8261 Cu 0.0 **** 0.0
249 Cu 1.27799 16.9705 5.8261 Cu 0.0 **** 0.0
250 Cu 3.83397 16.9705 5.8261 Cu 0.0 **** 0.0
251 Cu 6.38995 16.9705 5.8261 Cu 0.0 **** 0.0
252 Cu 8.94593 16.9705 5.8261 Cu 0.0 **** 0.0
253 Cu 11.5019 16.9705 5.8261 Cu 0.0 **** 0.0
254 Cu 14.0579 16.9705 5.8261 Cu 0.0 **** 0.0
255 Cu 16.6139 16.9705 5.8261 Cu 0.0 **** 0.0
256 Cu 19.1698 16.9705 5.8261 Cu 0.0 **** 0.0
257 Cu 0.0 19.184 5.8261 Cu 0.0 **** 0.0
258 Cu 2.55598 19.184 5.8261 Cu 0.0 **** 0.0
259 Cu 5.11196 19.184 5.8261 Cu 0.0 **** 0.0
260 Cu 7.66794 19.184 5.8261 Cu 0.0 **** 0.0
261 Cu 10.2239 19.184 5.8261 Cu 0.0 **** 0.0
262 Cu 12.7799 19.184 5.8261 Cu 0.0 **** 0.0
263 Cu 15.3359 19.184 5.8261 Cu 0.0 **** 0.0
264 Cu 17.8919 19.184 5.8261 Cu 0.0 **** 0.0
265 Cu 1.27799 21.3976 5.8261 Cu 0.0 **** 0.0
266 Cu 3.83397 21.3976 5.8261 Cu 0.0 **** 0.0
267 Cu 6.38995 21.3976 5.8261 Cu 0.0 **** 0.0
268 Cu 8.94593 21.3976 5.8261 Cu 0.0 **** 0.0
269 Cu 11.5019 21.3976 5.8261 Cu 0.0 **** 0.0
270 Cu 14.0579 21.3976 5.8261 Cu 0.0 **** 0.0
271 Cu 16.6139 21.3976 5.8261 Cu 0.0 **** 0.0
272 Cu 19.1698 21.3976 5.8261 Cu 0.0 **** 0.0
273 Cu 2e-15 23.6111 5.8261 Cu 0.0 **** 0.0
274 Cu 2.55598 23.6111 5.8261 Cu 0.0 **** 0.0
275 Cu 5.11196 23.6111 5.8261 Cu 0.0 **** 0.0
276 Cu 7.66794 23.6111 5.8261 Cu 0.0 **** 0.0
277 Cu 10.2239 23.6111 5.8261 Cu 0.0 **** 0.0
278 Cu 12.7799 23.6111 5.8261 Cu 0.0 **** 0.0
279 Cu 15.3359 23.6111 5.8261 Cu 0.0 **** 0.0
280 Cu 17.8919 23.6111 5.8261 Cu 0.0 **** 0.0
281 Cu 1.27799 25.8247 5.8261 Cu 0.0 **** 0.0
282 Cu 3.83397 25.8247 5.8261 Cu 0.0 **** 0.0
283 Cu 6.38995 25.8247 5.8261 Cu 0.0 **** 0.0
284 Cu 8.94593 25.8247 5.8261 Cu 0.0 **** 0.0
285 Cu 11.5019 25.8247 5.8261 Cu 0.0 **** 0.0
286 Cu 14.0579 25.8247 5.8261 Cu 0.0 **** 0.0
287 Cu 16.6139 25.8247 5.8261 Cu 0.0 **** 0.0
288 Cu 19.1698 25.8247 5.8261 Cu 0.0 **** 0.0
289 Cu 1.27799 0.737848 7.91305 Cu 0.0 **** 0.0
290 Cu 3.83397 0.737848 7.91305 Cu 0.0 **** 0.0
291 Cu 6.38995 0.737848 7.91305 Cu 0.0 **** 0.0
292 Cu 8.94593 0.737848 7.91305 Cu 0.0 **** 0.0
293 Cu 11.5019 0.737848 7.91305 Cu 0.0 **** 0.0
294 Cu 14.0579 0.737848 7.91305 Cu 0.0 **** 0.0
295 Cu 16.6139 0.737848 7.91305 Cu 0.0 **** 0.0
296 Cu 19.1698 0.737848 7.91305 Cu 0.0 **** 0.0
297 Cu 4e-15 2.95139 7.91305 Cu 0.0 **** 0.0
298 Cu 2.55598 2.95139 7.91305 Cu 0.0 **** 0.0
299 Cu 5.11196 2.95139 7.91305 Cu 0.0 **** 0.0
300 Cu 7.66794 2.95139 7.91305 Cu 0.0 **** 0.0
301 Cu 10.2239 2.95139 7.91305 Cu 0.0 **** 0.0
302 Cu 12.7799 2.95139 7.91305 Cu 0.0 **** 0.0
303 Cu 15.3359 2.95139 7.91305 Cu 0.0 **** 0.0
304 Cu 17.8919 2.95139 7.91305 Cu 0.0 **** 0.0
305 Cu 1.27799 5.16493 7.91305 Cu 0.0 **** 0.0
306 Cu 3.83397 5.16493 7.91305 Cu 0.0 **** 0.0
307 Cu 6.38995 5.16493 7.91305 Cu 0.0 **** 0.0
308 Cu 8.94593 5.16493 7.91305 Cu 0.0 **** 0.0
309 Cu 11.5019 5.16493 7.91305 Cu 0.0 **** 0.0
310 Cu 14.0579 5.16493 7.91305 Cu 0.0 **** 0.0
311 Cu 16.6139 5.16493 7.91305 Cu 0.0 **** 0.0
312 Cu 19.1698 5.16493 7.91305 Cu 0.0 **** 0.0
313 Cu 4e-15 7.37848 7.91305 Cu 0.0 **** 0.0
314 Cu 2.55598 7.37848 7.91305 Cu 0.0 **** 0.0
315 Cu 5.11196 7.37848 7.91305 Cu 0.0 **** 0.0
316 Cu 7.66794 7.37848 7.91305 Cu 0.0 **** 0.0
317 Cu 10.2239 7.37848 7.91305 Cu 0.0 **** 0.0
318 Cu 12.7799 7.37848 7.91305 Cu 0.0 **** 0.0
319 Cu 15.3359 7.37848 7.91305 Cu 0.0 **** 0.0
320 Cu 17.8919 7.37848 7.91305 Cu 0.0 **** 0.0
321 Cu 1.27799 9.59202 7.91305 Cu 0.0 **** 0.0
322 Cu 3.83397 9.59202 7.91305 Cu 0.0 **** 0.0
323 Cu 6.38995 9.59202 7.91305 Cu 0.0 **** 0.0
324 Cu 8.94593 9.59202 7.91305 Cu 0.0 **** 0.0
325 Cu 11.5019 9.59202 7.91305 Cu 0.0 **** 0.0
326 Cu 14.0579 9.59202 7.91305 Cu 0.0 **** 0.0
327 Cu 16.6139 9.59202 7.91305 Cu 0.0 **** 0.0
328 Cu 19.1698 9.59202 7.91305 Cu 0.0 **** 0.0
329 Cu 3e-15 11.8056 7.91305 Cu 0.0 **** 0.0
330 Cu 2.55598 11.8056 7.91305 Cu 0.0 **** 0.0
331 Cu 5.11196 11.8056 7.91305 Cu 0.0 **** 0.0
332 Cu 7.66794 11.8056 7.91305 Cu 0.0 **** 0.0
333 Cu 10.2239 11.8056 7.91305 Cu 0.0 **** 0.0
334 Cu 12.7799 11.8056 7.91305 Cu 0.0 **** 0.0
335 Cu 15.3359 11.8056 7.91305 Cu 0.0 **** 0.0
336 Cu 17.8919 11.8056 7.91305 Cu 0.0 **** 0.0
337 Cu 1.27799 14.0191 7.91305 Cu 0.0 **** 0.0
338 Cu 3.83397 14.0191 7.91305 Cu 0.0 **** 0.0
339 Cu 6.38995 14.0191 7.91305 Cu 0.0 **** 0.0
340 Cu 8.94593 14.0191 7.91305 Cu 0.0 **** 0.0
341 Cu 11.5019 14.0191 7.91305 Cu 0.0 **** 0.0
342 Cu 14.0579 14.0191 7.91305 Cu 0.0 **** 0.0
343 Cu 16.6139 14.0191 7.91305 Cu 0.0 **** 0.0
344 Cu 19.1698 14.0191 7.91305 Cu 0.0 **** 0.0
345 Cu 3e-15 16.2326 7.91305 Cu 0.0 **** 0.0
346 Cu 2.55598 16.2326 7.91305 Cu 0.0 **** 0.0
347 Cu 5.11196 16.2326 7.91305 Cu 0.0 **** 0.0
348 Cu 7.66794 16.2326 7.91305 Cu 0.0 **** 0.0
349 Cu 10.2239 16.2326 7.91305 Cu 0.0 **** 0.0
350 Cu 12.7799 16.2326 7.91305 Cu 0.0 **** 0.0
351 Cu 15.3359 16.2326 7.91305 Cu 0.0 **** 0.0
352 Cu 17.8919 16.2326 7.91305 Cu 0.0 **** 0.0
353 Cu 1.27799 18.4462 7.91305 Cu 0.0 **** 0.0
354 Cu 3.83397 18.4462 7.91305 Cu 0.0 **** 0.0
355 Cu 6.38995 18.4462 7.91305 Cu 0.0 **** 0.0
356 Cu 8.94593 18.4462 7.91305 Cu 0.0 **** 0.0
357 Cu 11.5019 18.4462 7.91305 Cu 0.0 **** 0.0
358 Cu 14.0579 18.4462 7.91305 Cu 0.0 **** 0.0
359 Cu 16.6139 18.4462 7.91305 Cu 0.0 **** 0.0
360 Cu 19.1698 18.4462 7.91305 Cu 0.0 **** 0.0
361 Cu 2e-15 20.6597 7.91305 Cu 0.0 **** 0.0
362 Cu 2.55598 20.6597 7.91305 Cu 0.0 **** 0.0
363 Cu 5.11196 20.6597 7.91305 Cu 0.0 **** 0.0
364 Cu 7.66794 20.6597 7.91305 Cu 0.0 **** 0.0
365 Cu 10.2239 20.6597 7.91305 Cu 0.0 **** 0.0
366 Cu 12.7799 20.6597 7.91305 Cu 0.0 **** 0.0
367 Cu 15.3359 20.6597 7.91305 Cu 0.0 **** 0.0
368 Cu 17.8919 20.6597 7.91305 Cu 0.0 **** 0.0
369 Cu 1.27799 22.8733 7.91305 Cu 0.0 **** 0.0
370 Cu 3.83397 22.8733 7.91305 Cu 0.0 **** 0.0
371 Cu 6.38995 22.8733 7.91305 Cu 0.0 **** 0.0
372 Cu 8.94593 22.8733 7.91305 Cu 0.0 **** 0.0
373 Cu 11.5019 22.8733 7.91305 Cu 0.0 **** 0.0
374 Cu 14.0579 22.8733 7.91305 Cu 0.0 **** 0.0
375 Cu 16.6139 22.8733 7.91305 Cu 0.0 **** 0.0
376 Cu 19.1698 22.8733 7.91305 Cu 0.0 **** 0.0
377 Cu 2e-15 25.0868 7.91305 Cu 0.0 **** 0.0
378 Cu 2.55598 25.0868 7.91305 Cu 0.0 **** 0.0
379 Cu 5.11196 25.0868 7.91305 Cu 0.0 **** 0.0
380 Cu 7.66794 25.0868 7.91305 Cu 0.0 **** 0.0
381 Cu 10.2239 25.0868 7.91305 Cu 0.0 **** 0.0
382 Cu 12.7799 25.0868 7.91305 Cu 0.0 **** 0.0
383 Cu 15.3359 25.0868 7.91305 Cu 0.0 **** 0.0
384 Cu 17.8919 25.0868 7.91305 Cu 0.0 **** 0.0
385 Cu 2e-15 4.42709 10.0 Cu 0.0 **** 0.0
386 Cu 2.55598 4.42709 10.0 Cu 0.0 **** 0.0
387 Cu 5.11196 4.42709 10.0 Cu 0.0 **** 0.0
388 Cu 7.66794 4.42709 10.0 Cu 0.0 **** 0.0
389 Cu 10.2239 4.42709 10.0 Cu 0.0 **** 0.0
390 Cu 12.7799 4.42709 10.0 Cu 0.0 **** 0.0
391 Cu 15.3359 4.42709 10.0 Cu 0.0 **** 0.0
392 Cu 17.8919 4.42709 10.0 Cu 0.0 **** 0.0
393 Cu 1.27799 6.64063 10.0 Cu 0.0 **** 0.0
394 Cu 3.83397 6.64063 10.0 Cu 0.0 **** 0.0
395 Cu 6.38995 6.64063 10.0 Cu 0.0 **** 0.0
396 Cu 8.94593 6.64063 10.0 Cu 0.0 **** 0.0
397 Cu 11.5019 6.64063 10.0 Cu 0.0 **** 0.0
398 Cu 14.0579 6.64063 10.0 Cu 0.0 **** 0.0
399 Cu 16.6139 6.64063 10.0 Cu 0.0 **** 0.0
400 Cu 19.1698 6.64063 10.0 Cu 0.0 **** 0.0
401 Cu -1e-15 8.85417 10.0 Cu 0.0 **** 0.0
402 Cu 2.55598 8.85417 10.0 Cu 0.0 **** 0.0
403 Cu 5.11196 8.85417 10.0 Cu 0.0 **** 0.0
404 Cu 7.66794 8.85417 10.0 Cu 0.0 **** 0.0
405 Cu 10.2239 8.85417 10.0 Cu 0.0 **** 0.0
406 Cu 12.7799 8.85417 10.0 Cu 0.0 **** 0.0
407 Cu 15.3359 8.85417 10.0 Cu 0.0 **** 0.0
408 Cu 17.8919 8.85417 10.0 Cu 0.0 **** 0.0
409 Cu 1.27799 11.0677 10.0 Cu 0.0 **** 0.0
410 Cu 3.83397 11.0677 10.0 Cu 0.0 **** 0.0
411 Cu 6.38995 11.0677 10.0 Cu 0.0 **** 0.0
412 Cu 8.94593 11.0677 10.0 Cu 0.0 **** 0.0
413 Cu 11.5019 11.0677 10.0 Cu 0.0 **** 0.0
414 Cu 14.0579 11.0677 10.0 Cu 0.0 **** 0.0
415 Cu 16.6139 11.0677 10.0 Cu 0.0 **** 0.0
416 Cu 19.1698 11.0677 10.0 Cu 0.0 **** 0.0
417 Cu 1e-15 13.2813 10.0 Cu 0.0 **** 0.0
418 Cu 2.55598 13.2813 10.0 Cu 0.0 **** 0.0
419 Cu 5.11196 13.2813 10.0 Cu 0.0 **** 0.0
420 Cu 7.66794 13.2813 10.0 Cu 0.0 **** 0.0
421 Cu 10.2239 13.2813 10.0 Cu 0.0 **** 0.0
422 Cu 12.7799 13.2813 10.0 Cu 0.0 **** 0.0
423 Cu 15.3359 13.2813 10.0 Cu 0.0 **** 0.0
424 Cu 17.8919 13.2813 10.0 Cu 0.0 **** 0.0
425 Cu 1.27799 15.4948 10.0 Cu 0.0 **** 0.0
426 Cu 3.83397 15.4948 10.0 Cu 0.0 **** 0.0
427 Cu 6.38995 15.4948 10.0 Cu 0.0 **** 0.0
428 Cu 8.94593 15.4948 10.0 Cu 0.0 **** 0.0
429 Cu 11.5019 15.4948 10.0 Cu 0.0 **** 0.0
430 Cu 14.0579 15.4948 10.0 Cu 0.0 **** 0.0
431 Cu 16.6139 15.4948 10.0 Cu 0.0 **** 0.0
432 Cu 19.1698 15.4948 10.0 Cu 0.0 **** 0.0
433 Cu -2e-15 17.7083 10.0 Cu 0.0 **** 0.0
434 Cu 2.55598 17.7083 10.0 Cu 0.0 **** 0.0
435 Cu 5.11196 17.7083 10.0 Cu 0.0 **** 0.0
436 Cu 7.66794 17.7083 10.0 Cu 0.0 **** 0.0
437 Cu 10.2239 17.7083 10.0 Cu 0.0 **** 0.0
438 Cu 12.7799 17.7083 10.0 Cu 0.0 **** 0.0
439 Cu 15.3359 17.7083 10.0 Cu 0.0 **** 0.0
440 Cu 17.8919 17.7083 10.0 Cu 0.0 **** 0.0
441 Cu 1.27799 19.9219 10.0 Cu 0.0 **** 0.0
442 Cu 3.83397 19.9219 10.0 Cu 0.0 **** 0.0
443 Cu 6.38995 19.9219 10.0 Cu 0.0 **** 0.0
444 Cu 8.94593 19.9219 10.0 Cu 0.0 **** 0.0
445 Cu 11.5019 19.9219 10.0 Cu 0.0 **** 0.0
446 Cu 14.0579 19.9219 10.0 Cu 0.0 **** 0.0
447 Cu 16.6139 19.9219 10.0 Cu 0.0 **** 0.0
448 Cu 19.1698 19.9219 10.0 Cu 0.0 **** 0.0
449 Cu 0.0 22.1354 10.0 Cu 0.0 **** 0.0
450 Cu 2.55598 22.1354 10.0 Cu 0.0 **** 0.0
451 Cu 5.11196 22.1354 10.0 Cu 0.0 **** 0.0
452 Cu 7.66794 22.1354 10.0 Cu 0.0 **** 0.0
453 Cu 10.2239 22.1354 10.0 Cu 0.0 **** 0.0
454 Cu 12.7799 22.1354 10.0 Cu 0.0 **** 0.0
455 Cu 15.3359 22.1354 10.0 Cu 0.0 **** 0.0
456 Cu 17.8919 22.1354 10.0 Cu 0.0 **** 0.0
457 Cu 1.27799 24.349 10.0 Cu 0.0 **** 0.0
458 Cu 3.83397 24.349 10.0 Cu 0.0 **** 0.0
459 Cu 6.38995 24.349 10.0 Cu 0.0 **** 0.0
460 Cu 8.94593 24.349 10.0 Cu 0.0 **** 0.0
461 Cu 11.5019 24.349 10.0 Cu 0.0 **** 0.0
462 Cu 14.0579 24.349 10.0 Cu 0.0 **** 0.0
463 Cu 16.6139 24.349 10.0 Cu 0.0 **** 0.0
464 Cu 19.1698 24.349 10.0 Cu 0.0 **** 0.0
465 Cu 0.0 0.0 10.0 Cu 0.0 **** 0.0
466 Cu 2.55598 0.0 10.0 Cu 0.0 **** 0.0
467 Cu 5.11196 0.0 10.0 Cu 0.0 **** 0.0
468 Cu 7.66794 0.0 10.0 Cu 0.0 **** 0.0
469 Cu 10.2239 0.0 10.0 Cu 0.0 **** 0.0
470 Cu 12.7799 0.0 10.0 Cu 0.0 **** 0.0
471 Cu 15.3359 0.0 10.0 Cu 0.0 **** 0.0
472 Cu 17.8919 0.0 10.0 Cu 0.0 **** 0.0
473 Cu 1.27799 2.21354 10.0 Cu 0.0 **** 0.0
474 Cu 3.83397 2.21354 10.0 Cu 0.0 **** 0.0
475 Cu 6.38995 2.21354 10.0 Cu 0.0 **** 0.0
476 Cu 8.94593 2.21354 10.0 Cu 0.0 **** 0.0
477 Cu 11.5019 2.21354 10.0 Cu 0.0 **** 0.0
478 Cu 14.0579 2.21354 10.0 Cu 0.0 **** 0.0
479 Cu 16.6139 2.21354 10.0 Cu 0.0 **** 0.0
480 Cu 19.1698 2.21354 10.0 Cu 0.0 **** 0.0
@<TRIPOS>BOND
