@<TRIPOS>MOLECULE
2022.03.01.Globular.Polymers/PolyDADMAC_cis
834 833
SMALL
USER_CHARGES


@<TRIPOS>ATOM
1 Cl1 -18.360114 1.710509 9.533557 Cl 0.0 **** 0.0
2 Cl1 -3.976481 -13.035995 -8.180808 Cl 0.0 **** 0.0
3 Cl1 10.167434 -1.020348 -10.597421 Cl 0.0 **** 0.0
4 Cl1 -1.728315 19.929994 8.934454 Cl 0.0 **** 0.0
5 Cl1 7.677969 18.242593 1.886222 Cl 0.0 **** 0.0
6 Cl1 -19.913724 -3.843683 7.31012 Cl 0.0 **** 0.0
7 Cl1 15.679722 4.799872 -11.018702 Cl 0.0 **** 0.0
8 Cl1 -10.870848 -20.436159 -7.958392 Cl 0.0 **** 0.0
9 Cl1 10.418808 16.363535 -1.044457 Cl 0.0 **** 0.0
10 Cl1 3.918937 16.250328 3.119983 Cl 0.0 **** 0.0
11 Cl1 3.681452 21.685408 6.321081 Cl 0.0 **** 0.0
12 Cl1 -4.142141 16.868947 8.671064 Cl 0.0 **** 0.0
13 Cl1 -14.695495 0.694788 6.370793 Cl 0.0 **** 0.0
14 Cl1 -5.372443 -6.251909 23.840354 Cl 0.0 **** 0.0
15 Cl1 -1.583521 -13.270885 18.742794 Cl 0.0 **** 0.0
16 Cl1 4.099296 -22.329182 10.161636 Cl 0.0 **** 0.0
17 Cl1 5.911189 -21.780978 4.967285 Cl 0.0 **** 0.0
18 Cl1 5.346468 6.464809 -12.598734 Cl 0.0 **** 0.0
19 Cl1 3.132252 -7.708635 -9.89366 Cl 0.0 **** 0.0
20 Cl1 3.74186 9.889236 -10.609105 Cl 0.0 **** 0.0
21 Cl1 -8.512027 13.835904 18.049832 Cl 0.0 **** 0.0
22 Cl1 -7.820666 3.729656 23.088275 Cl 0.0 **** 0.0
23 Cl1 -3.510624 -4.921525 17.851176 Cl 0.0 **** 0.0
24 Cl1 11.944329 -7.840661 15.12675 Cl 0.0 **** 0.0
25 Cl1 13.442907 -11.243988 -3.352876 Cl 0.0 **** 0.0
26 Cl1 2.358178 1.448382 -6.931193 Cl 0.0 **** 0.0
27 Cl1 -4.578224 9.547984 -8.256901 Cl 0.0 **** 0.0
28 Cl1 11.63412 -9.802684 -11.802713 Cl 0.0 **** 0.0
29 Cl1 4.646693 -2.127974 -17.586245 Cl 0.0 **** 0.0
30 Cl1 -9.386145 15.648436 -3.0066 Cl 0.0 **** 0.0
31 Cl1 -4.660484 11.751798 15.710772 Cl 0.0 **** 0.0
32 Cl1 0.606268 6.62825 28.24652 Cl 0.0 **** 0.0
33 C5 1.40004 4.997659 3.615281 C 0.0 **** 0.0
34 C10 1.919322 6.323074 4.257739 C 0.0 **** 0.0
35 H14 0.516204 5.223291 3.018248 H 0.0 **** 0.0
36 H15 2.154343 4.635483 2.919595 H 0.0 **** 0.0
37 C16 3.233401 6.263653 5.082564 C 0.0 **** 0.0
38 C20 2.241923 7.432641 3.228526 C 0.0 **** 0.0
39 C24 3.624122 7.762282 5.164936 C 0.0 **** 0.0
40 C28 4.37786 5.386776 4.4943 C 0.0 **** 0.0
41 N32 3.098896 8.465467 3.928108 N 0.0 **** 0.0
42 H35 1.316003 7.847473 2.82029 H 0.0 **** 0.0
43 H36 4.703945 7.880592 5.305345 H 0.0 **** 0.0
44 H37 5.287289 5.513912 5.083618 H 0.0 **** 0.0
45 H38 4.106464 4.332285 4.528668 H 0.0 **** 0.0
46 H39 4.597363 5.656162 3.460758 H 0.0 **** 0.0
47 C40 4.228531 8.925578 3.036245 C 0.0 **** 0.0
48 C44 2.275128 9.676159 4.303559 C 0.0 **** 0.0
49 H48 4.883532 8.09534 2.759496 H 0.0 **** 0.0
50 H49 3.847437 9.366709 2.110638 H 0.0 **** 0.0
51 H50 4.848646 9.676041 3.535071 H 0.0 **** 0.0
52 H51 2.867575 10.399038 4.871833 H 0.0 **** 0.0
53 H52 1.420591 9.392873 4.920516 H 0.0 **** 0.0
54 H53 1.883675 10.18654 3.41868 H 0.0 **** 0.0
55 H54 2.765215 6.974744 2.381231 H 0.0 **** 0.0
56 H55 3.17397 8.156612 6.081645 H 0.0 **** 0.0
57 H56 1.123967 6.69686 4.911549 H 0.0 **** 0.0
58 H57 3.016588 5.887919 6.087543 H 0.0 **** 0.0
59 C59 -1.217762 0.943662 5.011972 C 0.0 **** 0.0
60 C64 0.273972 1.417544 5.094831 C 0.0 **** 0.0
61 H68 -1.308414 0.087851 5.674348 H 0.0 **** 0.0
62 H69 -1.418384 0.586177 4.006049 H 0.0 **** 0.0
63 C70 0.736143 2.476104 4.038907 C 0.0 **** 0.0
64 C74 1.244808 0.217148 4.890258 C 0.0 **** 0.0
65 C78 1.972741 1.806309 3.35999 C 0.0 **** 0.0
66 C82 1.013837 3.893769 4.64694 C 0.0 **** 0.0
67 N85 2.50103 0.715965 4.247605 N 0.0 **** 0.0
68 H88 0.768573 -0.515007 4.235698 H 0.0 **** 0.0
69 H89 1.626745 1.39468 2.403545 H 0.0 **** 0.0
70 H90 1.800655 3.813618 5.393557 H 0.0 **** 0.0
71 H91 0.113213 4.227469 5.169647 H 0.0 **** 0.0
72 C92 3.197727 -0.357939 3.442984 C 0.0 **** 0.0
73 C96 3.473808 1.234321 5.281504 C 0.0 **** 0.0
74 H100 2.544682 -0.782994 2.675369 H 0.0 **** 0.0
75 H101 3.523463 -1.183455 4.080179 H 0.0 **** 0.0
76 H102 4.079041 0.042937 2.934252 H 0.0 **** 0.0
77 H103 4.340898 1.704447 4.810006 H 0.0 **** 0.0
78 H104 3.017332 1.969376 5.940837 H 0.0 **** 0.0
79 H105 3.843194 0.426116 5.917862 H 0.0 **** 0.0
80 H106 1.433397 -0.290202 5.840899 H 0.0 **** 0.0
81 H107 2.763856 2.513235 3.107845 H 0.0 **** 0.0
82 H108 0.44329 1.802028 6.106252 H 0.0 **** 0.0
83 H109 -0.046848 2.605539 3.2841 H 0.0 **** 0.0
84 C111 -5.333029 2.061151 3.397257 C 0.0 **** 0.0
85 C116 -4.410915 1.013564 4.103116 C 0.0 **** 0.0
86 H120 -6.23463 2.207823 3.987541 H 0.0 **** 0.0
87 H121 -4.801268 3.014799 3.362218 H 0.0 **** 0.0
88 C122 -3.798539 1.50311 5.452919 C 0.0 **** 0.0
89 C126 -5.130401 -0.314192 4.478874 C 0.0 **** 0.0
90 C130 -4.129951 0.373007 6.470287 C 0.0 **** 0.0
91 C134 -2.302583 1.982854 5.417751 C 0.0 **** 0.0
92 N137 -5.349914 -0.346115 5.96565 N 0.0 **** 0.0
93 H140 -4.471287 -1.134412 4.167405 H 0.0 **** 0.0
94 H141 -4.274607 0.79313 7.469756 H 0.0 **** 0.0
95 H142 -2.234741 2.83736 4.739643 H 0.0 **** 0.0
96 H143 -2.053356 2.337501 6.416901 H 0.0 **** 0.0
97 C144 -6.621667 0.367065 6.371406 C 0.0 **** 0.0
98 C148 -5.440921 -1.770581 6.461976 C 0.0 **** 0.0
99 H152 -7.498345 -0.086385 5.900459 H 0.0 **** 0.0
100 H153 -6.770502 0.326505 7.453586 H 0.0 **** 0.0
101 H154 -6.613158 1.42028 6.099078 H 0.0 **** 0.0
102 H155 -6.263059 -2.301482 5.975095 H 0.0 **** 0.0
103 H156 -5.622057 -1.810191 7.537538 H 0.0 **** 0.0
104 H157 -4.524338 -2.332256 6.262951 H 0.0 **** 0.0
105 H158 -6.067294 -0.454081 3.933898 H 0.0 **** 0.0
106 H159 -3.291871 -0.320753 6.543371 H 0.0 **** 0.0
107 H160 -3.607748 0.78743 3.401313 H 0.0 **** 0.0
108 H161 -4.370248 2.375978 5.785635 H 0.0 **** 0.0
109 C163 -8.336012 4.087575 2.674496 C 0.0 **** 0.0
110 C168 -8.059402 2.907545 1.684869 C 0.0 **** 0.0
111 H172 -7.672739 3.991717 3.531542 H 0.0 **** 0.0
112 H173 -8.072177 5.027058 2.183702 H 0.0 **** 0.0
113 C174 -6.583395 2.764171 1.201668 C 0.0 **** 0.0
114 C178 -8.866255 3.013692 0.363942 C 0.0 **** 0.0
115 C182 -6.69754 2.494716 -0.331171 C 0.0 **** 0.0
116 C186 -5.742313 1.676045 1.946922 C 0.0 **** 0.0
117 N189 -8.134749 2.207094 -0.667643 N 0.0 **** 0.0
118 H192 -8.918101 4.068791 0.067721 H 0.0 **** 0.0
119 H193 -6.039101 1.685226 -0.660574 H 0.0 **** 0.0
120 H194 -6.29512 0.736044 1.950856 H 0.0 **** 0.0
121 H195 -4.825268 1.499338 1.38505 H 0.0 **** 0.0
122 C196 -8.450068 0.731191 -0.546468 C 0.0 **** 0.0
123 C200 -8.484872 2.653274 -2.066711 C 0.0 **** 0.0
124 H204 -7.882936 0.145845 -1.27579 H 0.0 **** 0.0
125 H205 -9.512108 0.5385 -0.722562 H 0.0 **** 0.0
126 H206 -8.209093 0.333075 0.440212 H 0.0 **** 0.0
127 H207 -7.901052 2.104724 -2.811312 H 0.0 **** 0.0
128 H208 -8.284579 3.717837 -2.21736 H 0.0 **** 0.0
129 H209 -9.545151 2.489163 -2.279011 H 0.0 **** 0.0
130 H210 -9.896204 2.669746 0.505709 H 0.0 **** 0.0
131 H211 -6.346742 3.394613 -0.851083 H 0.0 **** 0.0
132 H212 -8.35871 1.982168 2.187594 H 0.0 **** 0.0
133 H213 -6.067625 3.718281 1.333008 H 0.0 **** 0.0
134 C215 -9.028558 7.070215 4.033094 C 0.0 **** 0.0
135 C220 -9.640858 6.074355 5.080033 C 0.0 **** 0.0
136 H224 -7.951643 6.913714 3.944668 H 0.0 **** 0.0
137 H225 -9.461078 6.856687 3.055485 H 0.0 **** 0.0
138 C226 -10.115246 4.656484 4.606566 C 0.0 **** 0.0
139 C230 -8.71901 5.732742 6.283167 C 0.0 **** 0.0
140 C234 -9.62577 3.664235 5.706048 C 0.0 **** 0.0
141 C238 -9.823441 4.152155 3.153108 C 0.0 **** 0.0
142 N241 -9.243094 4.472742 6.911643 N 0.0 **** 0.0
143 H244 -7.698429 5.587221 5.908602 H 0.0 **** 0.0
144 H245 -10.400767 2.923055 5.931231 H 0.0 **** 0.0
145 H246 -10.261976 3.151768 3.088978 H 0.0 **** 0.0
146 H247 -10.386819 4.767072 2.44622 H 0.0 **** 0.0
147 C248 -8.181274 3.792619 7.74012 C 0.0 **** 0.0
148 C252 -10.440814 4.73679 7.800725 C 0.0 **** 0.0
149 H256 -7.26911 3.612005 7.165907 H 0.0 **** 0.0
150 H257 -8.53117 2.824919 8.110408 H 0.0 **** 0.0
151 H258 -7.90698 4.405437 8.602552 H 0.0 **** 0.0
152 H259 -10.814929 3.808788 8.242502 H 0.0 **** 0.0
153 H260 -10.182786 5.412727 8.62079 H 0.0 **** 0.0
154 H261 -11.273605 5.187568 7.257662 H 0.0 **** 0.0
155 H262 -8.680491 6.547136 7.009428 H 0.0 **** 0.0
156 H263 -8.767158 3.095737 5.337254 H 0.0 **** 0.0
157 H264 -10.522314 6.578178 5.491568 H 0.0 **** 0.0
158 H265 -11.210938 4.663219 4.672393 H 0.0 **** 0.0
159 C267 -6.333793 9.615344 4.670776 C 0.0 **** 0.0
160 C272 -7.259363 9.206292 5.867581 C 0.0 **** 0.0
161 H276 -6.500218 10.663927 4.429918 H 0.0 **** 0.0
162 H277 -6.60558 9.041617 3.783534 H 0.0 **** 0.0
163 C278 -8.788223 9.212275 5.590574 C 0.0 **** 0.0
164 C282 -7.186171 10.202419 7.062891 C 0.0 **** 0.0
165 C286 -9.141342 10.705499 5.766214 C 0.0 **** 0.0
166 C290 -9.318897 8.585259 4.265004 C 0.0 **** 0.0
167 N293 -8.322586 11.201895 6.936268 N 0.0 **** 0.0
168 H296 -6.208239 10.686503 7.123409 H 0.0 **** 0.0
169 H297 -10.220933 10.825553 5.909769 H 0.0 **** 0.0
170 H298 -8.92171 9.145898 3.415263 H 0.0 **** 0.0
171 H299 -10.404013 8.723314 4.239793 H 0.0 **** 0.0
172 C300 -9.157944 11.232347 8.197513 C 0.0 **** 0.0
173 C304 -7.809554 12.599863 6.678748 C 0.0 **** 0.0
174 H308 -9.986345 11.941693 8.11232 H 0.0 **** 0.0
175 H309 -8.555935 11.526029 9.062333 H 0.0 **** 0.0
176 H310 -9.589872 10.251578 8.415579 H 0.0 **** 0.0
177 H311 -8.633718 13.300244 6.515344 H 0.0 **** 0.0
178 H312 -7.167826 12.636081 5.794862 H 0.0 **** 0.0
179 H313 -7.218884 12.96727 7.522875 H 0.0 **** 0.0
180 H314 -7.264019 9.607275 7.980874 H 0.0 **** 0.0
181 H315 -8.894717 11.230815 4.836159 H 0.0 **** 0.0
182 H316 -6.961632 8.20549 6.195055 H 0.0 **** 0.0
183 H317 -9.292231 8.68428 6.405706 H 0.0 **** 0.0
184 C319 -1.965779 8.074348 4.222982 C 0.0 **** 0.0
185 C324 -2.349025 9.569356 3.965591 C 0.0 **** 0.0
186 H328 -0.956132 8.067643 4.640027 H 0.0 **** 0.0
187 H329 -2.599336 7.645425 4.997353 H 0.0 **** 0.0
188 C330 -3.850788 9.984955 3.881571 C 0.0 **** 0.0
189 C334 -1.838621 10.52121 5.074557 C 0.0 **** 0.0
190 C338 -3.731556 11.531662 4.021629 C 0.0 **** 0.0
191 C342 -4.821594 9.338889 4.929783 C 0.0 **** 0.0
192 N345 -2.5116 11.855601 4.861095 N 0.0 **** 0.0
193 H348 -0.746672 10.585263 5.046944 H 0.0 **** 0.0
194 H349 -3.648075 11.940194 3.007054 H 0.0 **** 0.0
195 H350 -4.535299 9.66323 5.929604 H 0.0 **** 0.0
196 H351 -4.718596 8.254238 4.904423 H 0.0 **** 0.0
197 C352 -2.895361 12.485781 6.180084 C 0.0 **** 0.0
198 C356 -1.588333 12.808556 4.133804 C 0.0 **** 0.0
199 H360 -3.391629 13.448724 6.029109 H 0.0 **** 0.0
200 H361 -3.584059 11.851076 6.743591 H 0.0 **** 0.0
201 H362 -2.017446 12.657595 6.808205 H 0.0 **** 0.0
202 H363 -2.092348 13.753633 3.911928 H 0.0 **** 0.0
203 H364 -1.245658 12.387275 3.184428 H 0.0 **** 0.0
204 H365 -0.699092 13.036919 4.728802 H 0.0 **** 0.0
205 H366 -2.093946 10.082353 6.046335 H 0.0 **** 0.0
206 H367 -4.645419 11.972461 4.426254 H 0.0 **** 0.0
207 H368 -1.850343 9.865107 3.035341 H 0.0 **** 0.0
208 H369 -4.242942 9.748908 2.891668 H 0.0 **** 0.0
209 C371 -2.260811 4.842365 0.811526 C 0.0 **** 0.0
210 C376 -3.464799 5.663624 1.403397 C 0.0 **** 0.0
211 H380 -1.915836 5.307759 -0.112402 H 0.0 **** 0.0
212 H381 -1.419532 4.851616 1.503106 H 0.0 **** 0.0
213 C382 -3.138804 7.040803 2.047014 C 0.0 **** 0.0
214 C386 -4.495099 6.08873 0.314378 C 0.0 **** 0.0
215 C390 -3.051602 7.936091 0.786899 C 0.0 **** 0.0
216 C394 -1.910307 7.098825 3.008567 C 0.0 **** 0.0
217 N397 -4.185491 7.510848 -0.115318 N 0.0 **** 0.0
218 H400 -5.49319 6.009367 0.760041 H 0.0 **** 0.0
219 H401 -2.074647 7.772963 0.316906 H 0.0 **** 0.0
220 H402 -1.777215 6.10697 3.448174 H 0.0 **** 0.0
221 H403 -1.012347 7.312245 2.425888 H 0.0 **** 0.0
222 C404 -3.772719 7.580311 -1.566794 C 0.0 **** 0.0
223 C408 -5.387142 8.411067 0.077441 C 0.0 **** 0.0
224 H412 -3.478591 8.596041 -1.846547 H 0.0 **** 0.0
225 H413 -4.589876 7.273016 -2.225704 H 0.0 **** 0.0
226 H414 -2.924272 6.9233 -1.775156 H 0.0 **** 0.0
227 H415 -5.16405 9.443789 -0.205916 H 0.0 **** 0.0
228 H416 -5.718329 8.422924 1.119253 H 0.0 **** 0.0
229 H417 -6.232324 8.074666 -0.529996 H 0.0 **** 0.0
230 H418 -4.499047 5.385308 -0.523154 H 0.0 **** 0.0
231 H419 -3.083385 8.996487 1.042564 H 0.0 **** 0.0
232 H420 -3.953574 5.047241 2.164672 H 0.0 **** 0.0
233 H421 -4.017231 7.334587 2.629994 H 0.0 **** 0.0
234 C423 -1.149411 0.143224 0.845142 C 0.0 **** 0.0
235 C428 -1.882151 0.991799 -0.246611 C 0.0 **** 0.0
236 H432 -0.133526 -0.082525 0.513701 H 0.0 **** 0.0
237 H433 -1.048558 0.74841 1.744912 H 0.0 **** 0.0
238 C434 -1.55287 2.517862 -0.230969 C 0.0 **** 0.0
239 C438 -1.561167 0.559971 -1.699929 C 0.0 **** 0.0
240 C442 -1.41538 2.90296 -1.736401 C 0.0 **** 0.0
241 C446 -2.617088 3.348357 0.557866 C 0.0 **** 0.0
242 N449 -1.864434 1.738266 -2.580696 N 0.0 **** 0.0
243 H452 -0.500058 0.291698 -1.765782 H 0.0 **** 0.0
244 H453 -0.359344 3.136013 -1.918406 H 0.0 **** 0.0
245 H454 -2.756517 2.880297 1.536209 H 0.0 **** 0.0
246 H455 -3.567298 3.286246 0.026248 H 0.0 **** 0.0
247 C456 -1.103786 1.659861 -3.882482 C 0.0 **** 0.0
248 C460 -3.341202 1.825223 -2.901802 C 0.0 **** 0.0
249 H464 -0.02465 1.589491 -3.719668 H 0.0 **** 0.0
250 H465 -1.402853 0.781712 -4.461938 H 0.0 **** 0.0
251 H466 -1.281928 2.547592 -4.49596 H 0.0 **** 0.0
252 H467 -3.681717 0.939955 -3.446232 H 0.0 **** 0.0
253 H468 -3.56049 2.699273 -3.521636 H 0.0 **** 0.0
254 H469 -3.953889 1.909356 -2.00479 H 0.0 **** 0.0
255 H470 -2.134225 -0.331011 -1.97743 H 0.0 **** 0.0
256 H471 -1.968402 3.8147 -1.981664 H 0.0 **** 0.0
257 H472 -2.959023 0.861068 -0.102577 H 0.0 **** 0.0
258 H473 -0.582864 2.67252 0.255855 H 0.0 **** 0.0
259 C475 -0.968713 -4.050066 3.825516 C 0.0 **** 0.0
260 C480 -1.771821 -3.372901 2.658383 C 0.0 **** 0.0
261 H484 0.054773 -4.221366 3.494128 H 0.0 **** 0.0
262 H485 -1.405157 -5.030557 4.034169 H 0.0 **** 0.0
263 C486 -0.990394 -2.262991 1.895934 C 0.0 **** 0.0
264 C490 -2.109026 -4.34898 1.498074 C 0.0 **** 0.0
265 C494 -0.182127 -3.081684 0.849532 C 0.0 **** 0.0
266 C498 -1.899268 -1.167929 1.238175 C 0.0 **** 0.0
267 N501 -0.973922 -4.326011 0.49785 N 0.0 **** 0.0
268 H504 -2.335795 -5.351545 1.874838 H 0.0 **** 0.0
269 H505 0.785416 -3.32707 1.30292 H 0.0 **** 0.0
270 H506 -2.692477 -0.894791 1.936218 H 0.0 **** 0.0
271 H507 -2.392631 -1.583075 0.359375 H 0.0 **** 0.0
272 C508 -1.494286 -4.272257 -0.922751 C 0.0 **** 0.0
273 C512 -0.124748 -5.570396 0.61578 C 0.0 **** 0.0
274 H516 -2.099808 -3.382344 -1.102396 H 0.0 **** 0.0
275 H517 -2.120818 -5.14039 -1.147718 H 0.0 **** 0.0
276 H518 -0.674431 -4.253886 -1.646808 H 0.0 **** 0.0
277 H519 0.253469 -5.703864 1.628987 H 0.0 **** 0.0
278 H520 0.736598 -5.519353 -0.055428 H 0.0 **** 0.0
279 H521 -0.692287 -6.47123 0.364211 H 0.0 **** 0.0
280 H522 -3.040688 -3.995234 1.043578 H 0.0 **** 0.0
281 H523 0.060585 -2.469237 -0.024533 H 0.0 **** 0.0
282 H524 -2.701809 -2.983011 3.084466 H 0.0 **** 0.0
283 H525 -0.307441 -1.757666 2.580365 H 0.0 **** 0.0
284 C527 -0.959429 -2.198899 8.09719 C 0.0 **** 0.0
285 C532 0.04969 -3.324242 7.69863 C 0.0 **** 0.0
286 H536 -0.756891 -1.298869 7.516055 H 0.0 **** 0.0
287 H537 -1.963274 -2.543761 7.847492 H 0.0 **** 0.0
288 C538 0.036814 -3.88499 6.233378 C 0.0 **** 0.0
289 C542 1.531141 -2.938027 7.954263 C 0.0 **** 0.0
290 C546 1.531157 -3.811918 5.805988 C 0.0 **** 0.0
291 C550 -0.944406 -3.267136 5.176878 C 0.0 **** 0.0
292 N553 2.373877 -3.781891 7.047336 N 0.0 **** 0.0
293 H556 1.796854 -3.07308 9.008271 H 0.0 **** 0.0
294 H557 1.789116 -4.656575 5.164668 H 0.0 **** 0.0
295 H558 -1.958949 -3.275625 5.580231 H 0.0 **** 0.0
296 H559 -0.673703 -2.229445 4.997273 H 0.0 **** 0.0
297 C560 3.722844 -3.157838 6.792333 C 0.0 **** 0.0
298 C564 2.591995 -5.168414 7.613796 C 0.0 **** 0.0
299 H568 3.635897 -2.135804 6.417531 H 0.0 **** 0.0
300 H569 4.281355 -3.732086 6.048106 H 0.0 **** 0.0
301 H570 4.31969 -3.118076 7.707668 H 0.0 **** 0.0
302 H571 1.657062 -5.710234 7.770974 H 0.0 **** 0.0
303 H572 3.107895 -5.124128 8.576987 H 0.0 **** 0.0
304 H573 3.206186 -5.770669 6.940969 H 0.0 **** 0.0
305 H574 1.658072 -1.873977 7.726456 H 0.0 **** 0.0
306 H575 1.685305 -2.904203 5.211686 H 0.0 **** 0.0
307 H576 -0.168039 -4.169275 8.359317 H 0.0 **** 0.0
308 H577 -0.226707 -4.946789 6.297861 H 0.0 **** 0.0
309 C579 -1.353942 0.81378 11.993269 C 0.0 **** 0.0
310 C584 -1.979575 -0.580815 11.652749 C 0.0 **** 0.0
311 H588 -1.900833 1.595713 11.464237 H 0.0 **** 0.0
312 H589 -0.336975 0.82482 11.596003 H 0.0 **** 0.0
313 C590 -2.045402 -0.892593 10.121902 C 0.0 **** 0.0
314 C594 -3.439735 -0.796274 12.158898 C 0.0 **** 0.0
315 C598 -3.471731 -1.470106 9.935863 C 0.0 **** 0.0
316 C602 -0.912318 -1.840596 9.616254 C 0.0 **** 0.0
317 N605 -4.357022 -0.846429 10.971956 N 0.0 **** 0.0
318 H608 -3.459388 -1.748711 12.703676 H 0.0 **** 0.0
319 H609 -3.826625 -1.277078 8.92487 H 0.0 **** 0.0
320 H610 -0.953468 -2.763713 10.197549 H 0.0 **** 0.0
321 H611 0.045573 -1.362785 9.832385 H 0.0 **** 0.0
322 C612 -4.817374 0.536992 10.565276 C 0.0 **** 0.0
323 C616 -5.577713 -1.694015 11.238144 C 0.0 **** 0.0
324 H620 -5.46378 0.494155 9.685768 H 0.0 **** 0.0
325 H621 -3.986211 1.199144 10.321406 H 0.0 **** 0.0
326 H622 -5.386961 1.014613 11.367393 H 0.0 **** 0.0
327 H623 -6.18486 -1.265979 12.040734 H 0.0 **** 0.0
328 H624 -5.311642 -2.711313 11.539018 H 0.0 **** 0.0
329 H625 -6.203977 -1.773873 10.345052 H 0.0 **** 0.0
330 H626 -3.755566 -0.039897 12.879103 H 0.0 **** 0.0
331 H627 -3.434258 -2.558772 10.061601 H 0.0 **** 0.0
332 H628 -1.345933 -1.327851 12.14561 H 0.0 **** 0.0
333 H629 -1.979109 0.037745 9.547772 H 0.0 **** 0.0
334 C631 -0.271999 4.145732 13.897759 C 0.0 **** 0.0
335 C636 -1.777621 3.793662 13.634857 C 0.0 **** 0.0
336 H640 -0.035024 3.943981 14.943494 H 0.0 **** 0.0
337 H641 0.34652 3.485829 13.287488 H 0.0 **** 0.0
338 C642 -2.200031 2.33088 13.965626 C 0.0 **** 0.0
339 C646 -2.792124 4.562774 14.533857 C 0.0 **** 0.0
340 C650 -2.442888 2.392455 15.489853 C 0.0 **** 0.0
341 C654 -1.27846 1.147097 13.519892 C 0.0 **** 0.0
342 N657 -3.083608 3.732439 15.770232 N 0.0 **** 0.0
343 H660 -3.693466 4.715812 13.927183 H 0.0 **** 0.0
344 H661 -1.478272 2.276756 15.997409 H 0.0 **** 0.0
345 H662 -0.244412 1.346965 13.804077 H 0.0 **** 0.0
346 H663 -1.563042 0.261038 14.093421 H 0.0 **** 0.0
347 C664 -4.574299 3.580642 15.979094 C 0.0 **** 0.0
348 C668 -2.495994 4.361694 17.012311 C 0.0 **** 0.0
349 H672 -4.794912 2.979269 16.865865 H 0.0 **** 0.0
350 H673 -5.049235 3.088409 15.125475 H 0.0 **** 0.0
351 H674 -5.056035 4.55424 16.10783 H 0.0 **** 0.0
352 H675 -1.422496 4.535751 16.905341 H 0.0 **** 0.0
353 H676 -2.961061 5.328388 17.22595 H 0.0 **** 0.0
354 H677 -2.639842 3.720201 17.886566 H 0.0 **** 0.0
355 H678 -2.452521 5.569342 14.77853 H 0.0 **** 0.0
356 H679 -3.058051 1.542686 15.80631 H 0.0 **** 0.0
357 H680 -1.986084 4.000393 12.580502 H 0.0 **** 0.0
358 H681 -3.178845 2.157629 13.502565 H 0.0 **** 0.0
359 C683 1.378611 8.385127 12.914976 C 0.0 **** 0.0
360 C688 2.040307 7.459061 13.996596 C 0.0 **** 0.0
361 H692 1.686109 9.409577 13.141718 H 0.0 **** 0.0
362 H693 0.295576 8.355699 13.049054 H 0.0 **** 0.0
363 C694 1.585448 5.970517 14.082748 C 0.0 **** 0.0
364 C698 3.597981 7.38182 13.925101 C 0.0 **** 0.0
365 C702 2.763971 5.204909 13.444408 C 0.0 **** 0.0
366 C706 0.165673 5.599837 13.54373 C 0.0 **** 0.0
367 N709 4.021373 5.930115 13.845872 N 0.0 **** 0.0
368 H712 4.025738 7.887936 14.797978 H 0.0 **** 0.0
369 H713 2.7646 4.156029 13.75918 H 0.0 **** 0.0
370 H714 0.122478 5.724649 12.459998 H 0.0 **** 0.0
371 H715 -0.532692 6.308169 13.984313 H 0.0 **** 0.0
372 C716 5.11316 5.712887 12.825538 C 0.0 **** 0.0
373 C720 4.524315 5.433572 15.185654 C 0.0 **** 0.0
374 H724 5.354533 4.651328 12.725937 H 0.0 **** 0.0
375 H725 6.027556 6.243606 13.105156 H 0.0 **** 0.0
376 H726 4.818206 6.076858 11.837612 H 0.0 **** 0.0
377 H727 3.789656 5.583298 15.979946 H 0.0 **** 0.0
378 H728 5.433719 5.96183 15.486277 H 0.0 **** 0.0
379 H729 4.75967 4.365929 15.153453 H 0.0 **** 0.0
380 H730 3.963439 7.95549 13.070786 H 0.0 **** 0.0
381 H731 2.624117 5.206506 12.361918 H 0.0 **** 0.0
382 H732 1.773798 7.920862 14.955768 H 0.0 **** 0.0
383 H733 1.576156 5.707759 15.147013 H 0.0 **** 0.0
384 C735 -0.082823 8.174676 7.92086 C 0.0 **** 0.0
385 C740 1.112912 8.396437 8.913006 C 0.0 **** 0.0
386 H744 -0.954267 8.752445 8.233222 H 0.0 **** 0.0
387 H745 0.20262 8.559072 6.940121 H 0.0 **** 0.0
388 C746 0.6928 8.687526 10.383408 C 0.0 **** 0.0
389 C750 1.982535 9.641915 8.589211 C 0.0 **** 0.0
390 C754 0.522357 10.231216 10.39119 C 0.0 **** 0.0
391 C758 1.718487 8.113267 11.417549 C 0.0 **** 0.0
392 N761 1.421777 10.831553 9.3321 N 0.0 **** 0.0
393 H764 2.059368 9.809752 7.511881 H 0.0 **** 0.0
394 H765 0.699032 10.643202 11.387465 H 0.0 **** 0.0
395 H766 1.764108 7.037867 11.255822 H 0.0 **** 0.0
396 H767 2.71018 8.514304 11.201187 H 0.0 **** 0.0
397 C768 2.529025 11.651286 9.954391 C 0.0 **** 0.0
398 C772 0.642486 11.728617 8.395814 C 0.0 **** 0.0
399 H776 3.224494 12.019139 9.194379 H 0.0 **** 0.0
400 H777 2.12968 12.516937 10.490748 H 0.0 **** 0.0
401 H778 3.106883 11.062647 10.672402 H 0.0 **** 0.0
402 H779 1.286884 12.159021 7.623651 H 0.0 **** 0.0
403 H780 0.174511 12.555036 8.938409 H 0.0 **** 0.0
404 H781 -0.152064 11.17905 7.886087 H 0.0 **** 0.0
405 H782 3.005643 9.411674 8.910681 H 0.0 **** 0.0
406 H783 -0.535154 10.438454 10.187835 H 0.0 **** 0.0
407 H784 1.757198 7.512103 8.856586 H 0.0 **** 0.0
408 H785 -0.273611 8.228758 10.608539 H 0.0 **** 0.0
409 C787 -0.339485 3.518379 9.406947 C 0.0 **** 0.0
410 C792 -1.353181 4.421816 8.635756 C 0.0 **** 0.0
411 H796 -0.467077 3.684281 10.479677 H 0.0 **** 0.0
412 H797 -0.586897 2.474054 9.198791 H 0.0 **** 0.0
413 C798 -1.211516 5.95812 8.862407 C 0.0 **** 0.0
414 C802 -2.821762 4.120066 9.035075 C 0.0 **** 0.0
415 C806 -2.667557 6.454525 9.115348 C 0.0 **** 0.0
416 C810 -0.485846 6.688063 7.684999 C 0.0 **** 0.0
417 N813 -3.624452 5.353509 8.743026 N 0.0 **** 0.0
418 H816 -2.857655 3.882635 10.105072 H 0.0 **** 0.0
419 H817 -2.891247 7.380952 8.578252 H 0.0 **** 0.0
420 H818 -1.134823 6.651107 6.809135 H 0.0 **** 0.0
421 H819 0.416352 6.134297 7.416776 H 0.0 **** 0.0
422 C820 -4.021838 5.422596 7.283453 C 0.0 **** 0.0
423 C824 -4.880653 5.398084 9.578602 C 0.0 **** 0.0
424 H828 -4.541281 6.358673 7.059815 H 0.0 **** 0.0
425 H829 -4.694527 4.602868 7.018582 H 0.0 **** 0.0
426 H830 -3.162935 5.360907 6.613969 H 0.0 **** 0.0
427 H831 -5.52225 4.540136 9.363537 H 0.0 **** 0.0
428 H832 -5.452315 6.309995 9.383985 H 0.0 **** 0.0
429 H833 -4.660242 5.373724 10.649633 H 0.0 **** 0.0
430 H834 -3.198337 3.239747 8.504494 H 0.0 **** 0.0
431 H835 -2.7464 6.699959 10.18151 H 0.0 **** 0.0
432 H836 -1.244097 4.20105 7.571071 H 0.0 **** 0.0
433 H837 -0.627248 6.115045 9.771307 H 0.0 **** 0.0
434 C839 4.253617 3.656954 8.501238 C 0.0 **** 0.0
435 C844 3.62826 3.306776 9.897554 C 0.0 **** 0.0
436 H848 4.285729 2.768694 7.873491 H 0.0 **** 0.0
437 H849 3.582733 4.360461 8.007015 H 0.0 **** 0.0
438 C850 2.133717 2.884143 9.895212 C 0.0 **** 0.0
439 C854 4.246339 2.072059 10.608519 C 0.0 **** 0.0
440 C858 2.22424 1.390593 9.512689 C 0.0 **** 0.0
441 C862 1.153767 3.750516 9.04634 C 0.0 **** 0.0
442 N865 3.429676 0.845253 10.246225 N 0.0 **** 0.0
443 H868 4.218434 2.276532 11.686101 H 0.0 **** 0.0
444 H869 1.293722 0.875163 9.762612 H 0.0 **** 0.0
445 H870 1.397291 4.797537 9.235883 H 0.0 **** 0.0
446 H871 1.299163 3.553431 7.982062 H 0.0 **** 0.0
447 C872 4.219132 -0.099421 9.371696 C 0.0 **** 0.0
448 C876 3.002762 0.093735 11.48803 C 0.0 **** 0.0
449 H880 3.607872 -0.947965 9.059718 H 0.0 **** 0.0
450 H881 5.092897 -0.49293 9.899077 H 0.0 **** 0.0
451 H882 4.582371 0.395404 8.468342 H 0.0 **** 0.0
452 H883 2.406785 -0.788536 11.236835 H 0.0 **** 0.0
453 H884 2.394879 0.721028 12.146248 H 0.0 **** 0.0
454 H885 3.870205 -0.24245 12.063403 H 0.0 **** 0.0
455 H886 5.301273 1.963108 10.375286 H 0.0 **** 0.0
456 H887 2.330999 1.316163 8.425052 H 0.0 **** 0.0
457 H888 3.732413 4.191375 10.528306 H 0.0 **** 0.0
458 H889 1.781148 2.942838 10.933616 H 0.0 **** 0.0
459 C891 8.726357 4.517302 9.860125 C 0.0 **** 0.0
460 C896 8.252187 4.112209 8.415335 C 0.0 **** 0.0
461 H900 9.81822 4.544701 9.880351 H 0.0 **** 0.0
462 H901 8.400708 5.55213 10.008327 H 0.0 **** 0.0
463 C902 6.87892 3.415426 8.254504 C 0.0 **** 0.0
464 C906 9.173 3.143304 7.637107 C 0.0 **** 0.0
465 C910 6.942888 2.830377 6.817046 C 0.0 **** 0.0
466 C914 5.654893 4.348427 8.529067 C 0.0 **** 0.0
467 N917 8.400172 2.689422 6.420133 N 0.0 **** 0.0
468 H920 9.415664 2.300804 8.285389 H 0.0 **** 0.0
469 H921 6.394281 3.482999 6.131284 H 0.0 **** 0.0
470 H922 5.787255 4.852317 9.48763 H 0.0 **** 0.0
471 H923 5.666776 5.140072 7.773535 H 0.0 **** 0.0
472 C924 8.729314 3.560069 5.22667 C 0.0 **** 0.0
473 C928 8.732081 1.260479 6.065899 C 0.0 **** 0.0
474 H932 8.142853 3.267521 4.350809 H 0.0 **** 0.0
475 H933 9.786465 3.485723 4.956877 H 0.0 **** 0.0
476 H934 8.515665 4.613496 5.425309 H 0.0 **** 0.0
477 H935 8.141904 0.921952 5.209897 H 0.0 **** 0.0
478 H936 8.519171 0.585415 6.899092 H 0.0 **** 0.0
479 H937 9.787015 1.145139 5.811627 H 0.0 **** 0.0
480 H938 10.122536 3.630663 7.390403 H 0.0 **** 0.0
481 H939 6.402892 1.876849 6.806195 H 0.0 **** 0.0
482 H940 8.229367 5.040699 7.831356 H 0.0 **** 0.0
483 H941 6.853406 2.566165 8.936195 H 0.0 **** 0.0
484 C943 11.293257 1.358535 11.815741 C 0.0 **** 0.0
485 C948 10.263448 2.489607 12.153012 C 0.0 **** 0.0
486 H952 10.793738 0.386978 11.810715 H 0.0 **** 0.0
487 H953 12.056629 1.330102 12.596131 H 0.0 **** 0.0
488 C954 8.899805 2.362602 11.412878 C 0.0 **** 0.0
489 C958 9.833331 2.507126 13.645692 C 0.0 **** 0.0
490 C962 8.089504 1.456923 12.379161 C 0.0 **** 0.0
491 C966 8.211949 3.737243 11.113253 C 0.0 **** 0.0
492 N969 8.55217 1.714975 13.796096 N 0.0 **** 0.0
493 H972 10.640985 2.149118 14.292507 H 0.0 **** 0.0
494 H973 7.012868 1.597593 12.245286 H 0.0 **** 0.0
495 H974 7.136814 3.59921 11.022367 H 0.0 **** 0.0
496 H975 8.346488 4.387075 11.981859 H 0.0 **** 0.0
497 C976 7.514115 2.497647 14.569448 C 0.0 **** 0.0
498 C980 8.800019 0.416301 14.530179 C 0.0 **** 0.0
499 H984 7.87056 2.742476 15.57416 H 0.0 **** 0.0
500 H985 6.58297 1.93294 14.673508 H 0.0 **** 0.0
501 H986 7.269387 3.43844 14.071129 H 0.0 **** 0.0
502 H987 9.572699 -0.180304 14.037785 H 0.0 **** 0.0
503 H988 7.892316 -0.192629 14.574439 H 0.0 **** 0.0
504 H989 9.133026 0.595479 15.556639 H 0.0 **** 0.0
505 H990 9.694267 3.557356 13.928821 H 0.0 **** 0.0
506 H991 8.275612 0.418963 12.077317 H 0.0 **** 0.0
507 H992 10.74438 3.44603 11.920989 H 0.0 **** 0.0
508 H993 9.006646 1.830385 10.468251 H 0.0 **** 0.0
509 C995 12.59573 -0.112676 7.49813 C 0.0 **** 0.0
510 C1000 13.488934 0.581566 8.571372 C 0.0 **** 0.0
511 H1004 11.581985 0.288105 7.574191 H 0.0 **** 0.0
512 H1005 12.532796 -1.177569 7.741523 H 0.0 **** 0.0
513 C1006 12.974847 0.422549 10.032282 C 0.0 **** 0.0
514 C1010 14.940744 0.055231 8.652013 C 0.0 **** 0.0
515 C1014 14.267555 0.287864 10.894966 C 0.0 **** 0.0
516 C1018 12.013563 1.577994 10.455517 C 0.0 **** 0.0
517 N1021 15.46864 0.459728 9.99912 N 0.0 **** 0.0
518 H1024 14.921586 -1.036378 8.545463 H 0.0 **** 0.0
519 H1025 14.253991 -0.707321 11.355112 H 0.0 **** 0.0
520 H1026 11.256088 1.684496 9.680068 H 0.0 **** 0.0
521 H1027 12.57389 2.516372 10.495838 H 0.0 **** 0.0
522 C1028 16.619412 -0.422757 10.417782 C 0.0 **** 0.0
523 C1032 15.949233 1.896434 9.995367 C 0.0 **** 0.0
524 H1036 16.96612 -0.165775 11.422685 H 0.0 **** 0.0
525 H1037 17.464888 -0.321392 9.731294 H 0.0 **** 0.0
526 H1038 16.336583 -1.479095 10.432389 H 0.0 **** 0.0
527 H1039 15.153771 2.599715 9.741475 H 0.0 **** 0.0
528 H1040 16.757828 2.042541 9.273609 H 0.0 **** 0.0
529 H1041 16.328912 2.187521 10.97894 H 0.0 **** 0.0
530 H1042 15.546736 0.450589 7.830556 H 0.0 **** 0.0
531 H1043 14.279822 0.998513 11.726875 H 0.0 **** 0.0
532 H1044 13.522505 1.644074 8.335033 H 0.0 **** 0.0
533 H1045 12.415215 -0.517283 10.107941 H 0.0 **** 0.0
534 C1047 13.737887 0.426587 3.019319 C 0.0 **** 0.0
535 C1052 12.802655 1.417912 3.8005 C 0.0 **** 0.0
536 H1056 13.522961 -0.590582 3.348052 H 0.0 **** 0.0
537 H1057 14.777742 0.618084 3.290779 H 0.0 **** 0.0
538 C1058 12.968239 1.416827 5.348718 C 0.0 **** 0.0
539 C1062 13.052086 2.917123 3.48184 C 0.0 **** 0.0
540 C1066 14.182009 2.362135 5.52651 C 0.0 **** 0.0
541 C1070 13.058329 0.002164 6.015388 C 0.0 **** 0.0
542 N1073 14.038129 3.461959 4.496254 N 0.0 **** 0.0
543 H1076 12.079622 3.420102 3.546117 H 0.0 **** 0.0
544 H1077 15.098133 1.778207 5.386339 H 0.0 **** 0.0
545 H1078 12.394859 -0.664491 5.457394 H 0.0 **** 0.0
546 H1079 14.068365 -0.400262 5.912473 H 0.0 **** 0.0
547 C1080 15.369705 3.779352 3.856883 C 0.0 **** 0.0
548 C1084 13.506004 4.728088 5.132348 C 0.0 **** 0.0
549 H1088 16.100596 4.100662 4.604594 H 0.0 **** 0.0
550 H1089 15.274444 4.578482 3.116099 H 0.0 **** 0.0
551 H1090 15.78571 2.90913 3.343065 H 0.0 **** 0.0
552 H1091 14.208284 5.132623 5.867077 H 0.0 **** 0.0
553 H1092 12.56028 4.546709 5.651488 H 0.0 **** 0.0
554 H1093 13.326677 5.502777 4.381175 H 0.0 **** 0.0
555 H1094 13.373702 3.065086 2.448961 H 0.0 **** 0.0
556 H1095 14.230414 2.755106 6.54276 H 0.0 **** 0.0
557 H1096 11.765679 1.153582 3.569629 H 0.0 **** 0.0
558 H1097 12.095267 1.921976 5.77706 H 0.0 **** 0.0
559 C1099 9.914999 -0.780095 1.162691 C 0.0 **** 0.0
560 C1104 11.467577 -0.984227 1.095284 C 0.0 **** 0.0
561 H1108 9.699498 -0.055974 1.95271 H 0.0 **** 0.0
562 H1109 9.571702 -0.327627 0.230585 H 0.0 **** 0.0
563 C1110 12.232882 0.341413 0.81942 C 0.0 **** 0.0
564 C1114 11.983886 -1.893404 -0.052298 C 0.0 **** 0.0
565 C1118 12.270221 0.386152 -0.733124 C 0.0 **** 0.0
566 C1122 13.658783 0.434768 1.462293 C 0.0 **** 0.0
567 N1125 12.278054 -1.032983 -1.262276 N 0.0 **** 0.0
568 H1128 11.290874 -2.709455 -0.265251 H 0.0 **** 0.0
569 H1129 13.117343 0.983684 -1.08645 H 0.0 **** 0.0
570 H1130 14.141671 1.345872 1.101924 H 0.0 **** 0.0
571 H1131 14.270785 -0.3955 1.103848 H 0.0 **** 0.0
572 C1132 13.618995 -1.384241 -1.868708 C 0.0 **** 0.0
573 C1136 11.227866 -1.224712 -2.334927 C 0.0 **** 0.0
574 H1140 13.835071 -0.765171 -2.744374 H 0.0 **** 0.0
575 H1141 13.648663 -2.431438 -2.183627 H 0.0 **** 0.0
576 H1142 14.435478 -1.234183 -1.158926 H 0.0 **** 0.0
577 H1143 11.398194 -0.550572 -3.179419 H 0.0 **** 0.0
578 H1144 10.222538 -1.026779 -1.957867 H 0.0 **** 0.0
579 H1145 11.231709 -2.248887 -2.719393 H 0.0 **** 0.0
580 H1146 12.890285 -2.385987 0.319737 H 0.0 **** 0.0
581 H1147 11.379691 0.934847 -1.062434 H 0.0 **** 0.0
582 H1148 11.775299 -1.401248 2.054681 H 0.0 **** 0.0
583 H1149 11.663073 1.20523 1.175719 H 0.0 **** 0.0
584 C1151 7.016758 -4.146059 2.469627 C 0.0 **** 0.0
585 C1156 8.488928 -4.101765 3.003573 C 0.0 **** 0.0
586 H1160 7.047738 -3.938071 1.399522 H 0.0 **** 0.0
587 H1161 6.422237 -3.356876 2.934561 H 0.0 **** 0.0
588 C1162 9.249729 -2.762344 2.793155 C 0.0 **** 0.0
589 C1166 8.63333 -4.27707 4.540673 C 0.0 **** 0.0
590 C1170 8.837464 -1.938504 4.034604 C 0.0 **** 0.0
591 C1174 9.035935 -2.039623 1.42356 C 0.0 **** 0.0
592 N1177 8.668687 -2.905685 5.186573 N 0.0 **** 0.0
593 H1180 7.853287 -4.923541 4.94907 H 0.0 **** 0.0
594 H1181 7.905752 -1.410273 3.802272 H 0.0 **** 0.0
595 H1182 9.190361 -2.759672 0.619025 H 0.0 **** 0.0
596 H1183 7.99389 -1.715767 1.356028 H 0.0 **** 0.0
597 C1184 7.390717 -2.629802 5.945343 C 0.0 **** 0.0
598 C1188 9.824677 -2.794885 6.15543 C 0.0 **** 0.0
599 H1192 6.515868 -2.720195 5.298251 H 0.0 **** 0.0
600 H1193 7.384219 -1.619881 6.362081 H 0.0 **** 0.0
601 H1194 7.258652 -3.332622 6.773017 H 0.0 **** 0.0
602 H1195 9.748012 -3.542513 6.95014 H 0.0 **** 0.0
603 H1196 10.782959 -2.947074 5.650347 H 0.0 **** 0.0
604 H1197 9.857729 -1.808947 6.627143 H 0.0 **** 0.0
605 H1198 9.568665 -4.825546 4.707596 H 0.0 **** 0.0
606 H1199 9.58862 -1.165105 4.226428 H 0.0 **** 0.0
607 H1200 9.039715 -4.898407 2.490014 H 0.0 **** 0.0
608 H1201 10.317196 -2.991043 2.880934 H 0.0 **** 0.0
609 C1203 2.987669 -6.500539 3.226332 C 0.0 **** 0.0
610 C1208 4.106406 -6.869887 2.200165 C 0.0 **** 0.0
611 H1212 3.467876 -6.19227 4.157593 H 0.0 **** 0.0
612 H1213 2.441334 -5.631966 2.849927 H 0.0 **** 0.0
613 C1214 5.003028 -5.663394 1.786619 C 0.0 **** 0.0
614 C1218 3.597165 -7.406632 0.841233 C 0.0 **** 0.0
615 C1222 5.27722 -5.874203 0.264333 C 0.0 **** 0.0
616 C1226 6.287347 -5.509701 2.663484 C 0.0 **** 0.0
617 N1229 4.704982 -7.20424 -0.151087 N 0.0 **** 0.0
618 H1232 2.707472 -6.836291 0.556171 H 0.0 **** 0.0
619 H1233 6.342787 -5.80168 0.024377 H 0.0 **** 0.0
620 H1234 6.972925 -6.331044 2.43908 H 0.0 **** 0.0
621 H1235 5.997653 -5.597827 3.712973 H 0.0 **** 0.0
622 C1236 5.742202 -8.303606 -0.055148 C 0.0 **** 0.0
623 C1240 4.172051 -7.176133 -1.56314 C 0.0 **** 0.0
624 H1244 6.552179 -8.144745 -0.772759 H 0.0 **** 0.0
625 H1245 5.302578 -9.282632 -0.265628 H 0.0 **** 0.0
626 H1246 6.200024 -8.357365 0.934405 H 0.0 **** 0.0
627 H1247 4.971079 -6.967953 -2.280249 H 0.0 **** 0.0
628 H1248 3.408705 -6.403932 -1.694469 H 0.0 **** 0.0
629 H1249 3.716195 -8.133333 -1.831964 H 0.0 **** 0.0
630 H1250 3.296449 -8.456293 0.921079 H 0.0 **** 0.0
631 H1251 4.794457 -5.050141 -0.274863 H 0.0 **** 0.0
632 H1252 4.73164 -7.644203 2.654402 H 0.0 **** 0.0
633 H1253 4.424029 -4.738779 1.897633 H 0.0 **** 0.0
634 C1255 -0.068123 -9.760839 4.311875 C 0.0 **** 0.0
635 C1260 1.458315 -10.073674 4.477963 C 0.0 **** 0.0
636 H1264 -0.359927 -8.979613 5.018036 H 0.0 **** 0.0
637 H1265 -0.239318 -9.380288 3.304546 H 0.0 **** 0.0
638 C1266 2.484481 -8.936133 4.144082 C 0.0 **** 0.0
639 C1270 1.839574 -10.516477 5.922693 C 0.0 **** 0.0
640 C1274 3.273318 -8.748171 5.465709 C 0.0 **** 0.0
641 C1278 1.933384 -7.602469 3.54486 C 0.0 **** 0.0
642 N1281 3.242279 -10.057096 6.196682 N 0.0 **** 0.0
643 H1284 1.731492 -11.600131 6.03973 H 0.0 **** 0.0
644 H1285 4.295322 -8.406465 5.270785 H 0.0 **** 0.0
645 H1286 1.397714 -7.830495 2.621562 H 0.0 **** 0.0
646 H1287 1.208459 -7.173919 4.242089 H 0.0 **** 0.0
647 C1288 3.496273 -9.870368 7.672817 C 0.0 **** 0.0
648 C1292 4.264655 -11.031343 5.651959 C 0.0 **** 0.0
649 H1296 4.501263 -9.477888 7.851867 H 0.0 **** 0.0
650 H1297 3.401672 -10.818204 8.210013 H 0.0 **** 0.0
651 H1298 2.788568 -9.169297 8.1245 H 0.0 **** 0.0
652 H1299 5.28073 -10.646989 5.777557 H 0.0 **** 0.0
653 H1300 4.123339 -11.233841 4.588399 H 0.0 **** 0.0
654 H1301 4.207385 -11.992278 6.170936 H 0.0 **** 0.0
655 H1302 1.141901 -10.052562 6.63003 H 0.0 **** 0.0
656 H1303 2.775789 -7.969106 6.05312 H 0.0 **** 0.0
657 H1304 1.675454 -10.913143 3.806696 H 0.0 **** 0.0
658 H1305 3.181927 -9.340378 3.403765 H 0.0 **** 0.0
659 C1307 -3.64102 -12.195494 6.386776 C 0.0 **** 0.0
660 C1312 -3.362399 -11.9738 4.864007 C 0.0 **** 0.0
661 H1316 -2.678892 -12.149857 6.904284 H 0.0 **** 0.0
662 H1317 -3.995221 -13.222256 6.50957 H 0.0 **** 0.0
663 C1318 -2.516001 -10.717432 4.500042 C 0.0 **** 0.0
664 C1322 -4.595058 -11.872761 3.933618 C 0.0 **** 0.0
665 C1326 -3.100368 -10.239775 3.135086 C 0.0 **** 0.0
666 C1330 -0.980047 -11.007679 4.508182 C 0.0 **** 0.0
667 N1333 -4.103549 -11.257288 2.652736 N 0.0 **** 0.0
668 H1336 -5.350631 -11.234979 4.401776 H 0.0 **** 0.0
669 H1337 -2.31787 -10.063076 2.391811 H 0.0 **** 0.0
670 H1338 -0.745405 -11.738437 3.729467 H 0.0 **** 0.0
671 H1339 -0.737059 -11.465078 5.46932 H 0.0 **** 0.0
672 C1340 -3.45316 -12.286962 1.75161 C 0.0 **** 0.0
673 C1344 -5.232338 -10.612757 1.886553 C 0.0 **** 0.0
674 H1348 -3.099698 -11.830967 0.822335 H 0.0 **** 0.0
675 H1349 -4.157455 -13.079449 1.483149 H 0.0 **** 0.0
676 H1350 -2.589314 -12.763336 2.217919 H 0.0 **** 0.0
677 H1351 -4.859736 -10.093405 0.999122 H 0.0 **** 0.0
678 H1352 -5.765961 -9.876366 2.493194 H 0.0 **** 0.0
679 H1353 -5.960948 -11.359484 1.559606 H 0.0 **** 0.0
680 H1354 -5.051281 -12.856536 3.781867 H 0.0 **** 0.0
681 H1355 -3.576297 -9.266092 3.30438 H 0.0 **** 0.0
682 H1356 -2.811567 -12.865192 4.543507 H 0.0 **** 0.0
683 H1357 -2.703923 -9.936477 5.242653 H 0.0 **** 0.0
684 C1359 -7.144181 -13.997048 8.346042 C 0.0 **** 0.0
685 C1364 -6.089827 -12.847556 8.521263 C 0.0 **** 0.0
686 H1368 -7.396189 -14.368827 9.34326 H 0.0 **** 0.0
687 H1369 -8.066922 -13.595625 7.927001 H 0.0 **** 0.0
688 C1370 -6.046903 -11.810818 7.362575 C 0.0 **** 0.0
689 C1374 -6.359061 -11.931389 9.747419 C 0.0 **** 0.0
690 C1378 -7.10598 -10.764942 7.797383 C 0.0 **** 0.0
691 C1382 -4.622859 -11.212141 7.103767 C 0.0 **** 0.0
692 N1385 -7.215853 -10.766854 9.306652 N 0.0 **** 0.0
693 H1388 -6.791399 -12.494936 10.580468 H 0.0 **** 0.0
694 H1389 -8.052883 -11.055255 7.32764 H 0.0 **** 0.0
695 H1390 -4.187203 -10.923364 8.062105 H 0.0 **** 0.0
696 H1391 -4.711927 -10.294854 6.518885 H 0.0 **** 0.0
697 C1392 -6.711861 -9.467192 9.89021 C 0.0 **** 0.0
698 C1396 -8.648194 -10.951747 9.756873 C 0.0 **** 0.0
699 H1400 -6.707388 -9.497756 10.983587 H 0.0 **** 0.0
700 H1401 -5.692317 -9.256988 9.562873 H 0.0 **** 0.0
701 H1402 -7.33304 -8.621948 9.580387 H 0.0 **** 0.0
702 H1403 -8.725898 -10.963514 10.847949 H 0.0 **** 0.0
703 H1404 -9.284557 -10.143972 9.3877 H 0.0 **** 0.0
704 H1405 -9.068714 -11.891294 9.391701 H 0.0 **** 0.0
705 H1406 -5.383142 -11.592297 10.115977 H 0.0 **** 0.0
706 H1407 -6.867259 -9.781825 7.380015 H 0.0 **** 0.0
707 H1408 -5.112415 -13.317861 8.667063 H 0.0 **** 0.0
708 H1409 -6.379704 -12.25155 6.425639 H 0.0 **** 0.0
709 C1411 -8.839667 -14.648624 4.259387 C 0.0 **** 0.0
710 C1416 -8.430201 -15.371187 5.585719 C 0.0 **** 0.0
711 H1420 -8.174222 -14.952782 3.448666 H 0.0 **** 0.0
712 H1421 -9.847143 -14.981139 3.99979 H 0.0 **** 0.0
713 C1422 -6.93426 -15.224347 5.985242 C 0.0 **** 0.0
714 C1426 -8.602786 -16.913502 5.51516 C 0.0 **** 0.0
715 C1430 -6.275383 -16.412534 5.233666 C 0.0 **** 0.0
716 C1434 -6.674976 -15.246797 7.530308 C 0.0 **** 0.0
717 N1437 -7.282542 -17.536223 5.113247 N 0.0 **** 0.0
718 H1440 -9.428981 -17.186733 4.850313 H 0.0 **** 0.0
719 H1441 -5.343793 -16.716778 5.722257 H 0.0 **** 0.0
720 H1442 -5.608144 -15.399276 7.710387 H 0.0 **** 0.0
721 H1443 -7.180062 -16.121805 7.946214 H 0.0 **** 0.0
722 C1444 -6.922177 -18.689784 6.023459 C 0.0 **** 0.0
723 C1448 -7.339971 -18.068322 3.698081 C 0.0 **** 0.0
724 H1452 -5.96899 -19.142823 5.735456 H 0.0 **** 0.0
725 H1453 -7.686641 -19.471617 5.992498 H 0.0 **** 0.0
726 H1454 -6.825514 -18.368494 7.063042 H 0.0 **** 0.0
727 H1455 -6.366305 -18.452528 3.380217 H 0.0 **** 0.0
728 H1456 -7.632772 -17.292267 2.987147 H 0.0 **** 0.0
729 H1457 -8.066168 -18.881318 3.606475 H 0.0 **** 0.0
730 H1458 -8.919665 -17.247782 6.510383 H 0.0 **** 0.0
731 H1459 -5.969179 -16.039628 4.24847 H 0.0 **** 0.0
732 H1460 -9.089657 -14.986713 6.369115 H 0.0 **** 0.0
733 H1461 -6.504814 -14.306044 5.59205 H 0.0 **** 0.0
734 C1463 -9.061349 -9.966506 4.128236 C 0.0 **** 0.0
735 C1468 -9.211065 -10.890914 2.86951 C 0.0 **** 0.0
736 H1472 -8.211139 -10.31076 4.721372 H 0.0 **** 0.0
737 H1473 -8.790306 -8.983399 3.743403 H 0.0 **** 0.0
738 C1474 -9.461229 -12.411677 3.0707 C 0.0 **** 0.0
739 C1478 -10.342886 -10.459558 1.885852 C 0.0 **** 0.0
740 C1482 -10.994979 -12.515944 2.914254 C 0.0 **** 0.0
741 C1486 -8.852159 -13.092892 4.337465 C 0.0 **** 0.0
742 N1489 -11.379938 -11.563862 1.809637 N 0.0 **** 0.0
743 H1492 -9.893737 -10.251409 0.907717 H 0.0 **** 0.0
744 H1493 -11.461017 -12.244492 3.866869 H 0.0 **** 0.0
745 H1494 -7.82323 -12.746686 4.439584 H 0.0 **** 0.0
746 H1495 -9.400438 -12.786489 5.228542 H 0.0 **** 0.0
747 C1496 -12.782513 -11.043299 2.016591 C 0.0 **** 0.0
748 C1500 -11.334968 -12.259958 0.464361 C 0.0 **** 0.0
749 H1504 -13.513125 -11.857369 2.009032 H 0.0 **** 0.0
750 H1505 -13.059276 -10.333645 1.231754 H 0.0 **** 0.0
751 H1506 -12.883875 -10.524248 2.972624 H 0.0 **** 0.0
752 H1507 -12.042111 -13.093382 0.419858 H 0.0 **** 0.0
753 H1508 -10.342697 -12.661925 0.246345 H 0.0 **** 0.0
754 H1509 -11.588576 -11.569511 -0.345303 H 0.0 **** 0.0
755 H1510 -10.773137 -9.502399 2.193642 H 0.0 **** 0.0
756 H1511 -11.296358 -13.546606 2.702659 H 0.0 **** 0.0
757 H1512 -8.256086 -10.797522 2.342092 H 0.0 **** 0.0
758 H1513 -9.011809 -12.921523 2.210187 H 0.0 **** 0.0
759 C1515 -9.370451 -6.21834 6.573158 C 0.0 **** 0.0
760 C1520 -10.183738 -7.252045 5.718225 C 0.0 **** 0.0
761 H1524 -9.567519 -5.22125 6.169949 H 0.0 **** 0.0
762 H1525 -9.75164 -6.219089 7.596003 H 0.0 **** 0.0
763 C1526 -10.113003 -8.727369 6.200604 C 0.0 **** 0.0
764 C1530 -11.712852 -6.972549 5.747154 C 0.0 **** 0.0
765 C1534 -11.244184 -8.765965 7.26306 C 0.0 **** 0.0
766 C1538 -10.29111 -9.801624 5.072206 C 0.0 **** 0.0
767 N1541 -12.343908 -7.818769 6.834171 N 0.0 **** 0.0
768 H1544 -12.108754 -7.227167 4.756681 H 0.0 **** 0.0
769 H1545 -10.798325 -8.455931 8.215421 H 0.0 **** 0.0
770 H1546 -11.168369 -9.552052 4.481011 H 0.0 **** 0.0
771 H1547 -10.482845 -10.762541 5.548229 H 0.0 **** 0.0
772 C1548 -13.546058 -8.577364 6.314446 C 0.0 **** 0.0
773 C1552 -12.812286 -6.965747 7.992928 C 0.0 **** 0.0
774 H1556 -13.280992 -9.249622 5.49667 H 0.0 **** 0.0
775 H1557 -14.311867 -7.8931 5.937734 H 0.0 **** 0.0
776 H1558 -14.001707 -9.189395 7.098383 H 0.0 **** 0.0
777 H1559 -13.607183 -6.279353 7.686806 H 0.0 **** 0.0
778 H1560 -12.002698 -6.357846 8.402142 H 0.0 **** 0.0
779 H1561 -13.199297 -7.584002 8.808224 H 0.0 **** 0.0
780 H1562 -11.911636 -5.901856 5.864075 H 0.0 **** 0.0
781 H1563 -11.594824 -9.789665 7.430755 H 0.0 **** 0.0
782 H1564 -9.838392 -7.160422 4.687274 H 0.0 **** 0.0
783 H1565 -9.160773 -8.930352 6.690152 H 0.0 **** 0.0
784 C1567 -4.785853 -6.466719 6.78896 C 0.0 **** 0.0
785 C1572 -5.467183 -6.583039 5.385017 C 0.0 **** 0.0
786 H1576 -5.067491 -5.510981 7.23543 H 0.0 **** 0.0
787 H1577 -5.173062 -7.265381 7.422934 H 0.0 **** 0.0
788 C1578 -7.034382 -6.516236 5.323152 C 0.0 **** 0.0
789 C1582 -5.0027 -5.494435 4.373616 C 0.0 **** 0.0
790 C1586 -7.32069 -5.368723 4.317829 C 0.0 **** 0.0
791 C1590 -7.822998 -6.390166 6.667613 C 0.0 **** 0.0
792 N1593 -6.130729 -5.255438 3.412055 N 0.0 **** 0.0
793 H1596 -4.083514 -5.803264 3.865465 H 0.0 **** 0.0
794 H1597 -7.46826 -4.440779 4.883694 H 0.0 **** 0.0
795 H1598 -7.610243 -7.268245 7.278898 H 0.0 **** 0.0
796 H1599 -7.445215 -5.523453 7.215545 H 0.0 **** 0.0
797 C1600 -6.061624 -3.889714 2.775838 C 0.0 **** 0.0
798 C1604 -6.154895 -6.295641 2.312525 C 0.0 **** 0.0
799 H1608 -6.928107 -3.710119 2.133172 H 0.0 **** 0.0
800 H1609 -6.042373 -3.094106 3.522333 H 0.0 **** 0.0
801 H1610 -5.163374 -3.783228 2.16653 H 0.0 **** 0.0
802 H1611 -7.019903 -6.157667 1.657863 H 0.0 **** 0.0
803 H1612 -6.205935 -7.313423 2.702793 H 0.0 **** 0.0
804 H1613 -5.256067 -6.233189 1.692538 H 0.0 **** 0.0
805 H1614 -4.767853 -4.576439 4.924277 H 0.0 **** 0.0
806 H1615 -8.24307 -5.551487 3.758073 H 0.0 **** 0.0
807 H1616 -5.16405 -7.55654 4.98108 H 0.0 **** 0.0
808 H1617 -7.373715 -7.446688 4.863001 H 0.0 **** 0.0
809 H1619 -1.469412 -9.279152 7.343232 H 0.0 **** 0.0
810 C1621 -1.487198 -9.12567 8.421772 C 0.0 **** 0.0
811 C1625 -2.619298 -8.131707 8.800822 C 0.0 **** 0.0
812 H1629 -0.512133 -8.749579 8.735904 H 0.0 **** 0.0
813 H1630 -1.658851 -10.090932 8.902101 H 0.0 **** 0.0
814 C1631 -2.486535 -6.737711 8.124328 C 0.0 **** 0.0
815 C1635 -2.703745 -7.833682 10.32819 C 0.0 **** 0.0
816 C1639 -2.86717 -5.754932 9.259854 C 0.0 **** 0.0
817 C1643 -3.229529 -6.558338 6.758625 C 0.0 **** 0.0
818 N1646 -2.395654 -6.375106 10.545628 N 0.0 **** 0.0
819 H1649 -2.04514 -8.486861 10.91057 H 0.0 **** 0.0
820 H1650 -3.953355 -5.626197 9.277935 H 0.0 **** 0.0
821 H1651 -2.936203 -7.387682 6.109907 H 0.0 **** 0.0
822 H1652 -2.851773 -5.643682 6.296445 H 0.0 **** 0.0
823 C1653 -3.141805 -5.807676 11.729604 C 0.0 **** 0.0
824 C1657 -0.914499 -6.156876 10.773313 C 0.0 **** 0.0
825 H1661 -2.84362 -6.304521 12.657071 H 0.0 **** 0.0
826 H1662 -4.223471 -5.933259 11.628256 H 0.0 **** 0.0
827 H1663 -2.948092 -4.73686 11.841187 H 0.0 **** 0.0
828 H1664 -0.581649 -6.64674 11.692746 H 0.0 **** 0.0
829 H1665 -0.302327 -6.554035 9.962544 H 0.0 **** 0.0
830 H1666 -0.679996 -5.094674 10.866326 H 0.0 **** 0.0
831 H1667 -3.72257 -8.069639 10.656232 H 0.0 **** 0.0
832 H1668 -2.432531 -4.769006 9.08561 H 0.0 **** 0.0
833 H1669 -3.557464 -8.594365 8.489712 H 0.0 **** 0.0
834 H1670 -1.42833 -6.564631 7.903159 H 0.0 **** 0.0
@<TRIPOS>BOND
1 33 66 1
2 33 34 1
3 33 35 1
4 33 36 1
5 34 37 1
6 34 38 1
7 34 57 1
8 37 39 1
9 37 40 1
10 37 58 1
11 38 41 1
12 38 42 1
13 38 55 1
14 39 41 1
15 39 43 1
16 39 56 1
17 40 44 1
18 40 45 1
19 40 46 1
20 41 47 1
21 41 48 1
22 47 49 1
23 47 50 1
24 47 51 1
25 48 52 1
26 48 53 1
27 48 54 1
28 59 91 1
29 59 60 1
30 59 61 1
31 59 62 1
32 60 64 1
33 60 82 1
34 60 63 1
35 63 65 1
36 63 66 1
37 63 83 1
38 64 67 1
39 64 68 1
40 64 80 1
41 65 67 1
42 65 69 1
43 65 81 1
44 66 70 1
45 66 71 1
46 67 72 1
47 67 73 1
48 72 74 1
49 72 75 1
50 72 76 1
51 73 77 1
52 73 78 1
53 73 79 1
54 84 85 1
55 84 86 1
56 84 87 1
57 85 88 1
58 85 89 1
59 88 90 1
60 88 91 1
61 89 92 1
62 89 93 1
63 90 92 1
64 90 94 1
65 91 95 1
66 91 96 1
67 92 97 1
68 92 98 1
69 97 99 1
70 100 97 1
71 101 97 1
72 102 98 1
73 103 98 1
74 104 98 1
75 105 89 1
76 106 90 1
77 107 85 1
78 108 88 1
79 109 110 1
80 109 111 1
81 109 112 1
82 109 141 1
83 110 113 1
84 110 114 1
85 110 132 1
86 113 115 1
87 113 116 1
88 113 133 1
89 114 117 1
90 114 118 1
91 114 130 1
92 115 117 1
93 115 119 1
94 115 131 1
95 116 84 1
96 116 120 1
97 116 121 1
98 117 122 1
99 117 123 1
100 122 124 1
101 122 125 1
102 122 126 1
103 123 127 1
104 123 128 1
105 123 129 1
106 134 135 1
107 134 136 1
108 134 137 1
109 134 166 1
110 135 138 1
111 135 139 1
112 135 157 1
113 138 140 1
114 138 141 1
115 138 158 1
116 139 142 1
117 139 143 1
118 139 155 1
119 140 142 1
120 140 144 1
121 140 156 1
122 141 145 1
123 141 146 1
124 142 147 1
125 142 148 1
126 147 149 1
127 147 150 1
128 147 151 1
129 148 152 1
130 148 153 1
131 148 154 1
132 159 160 1
133 159 161 1
134 159 162 1
135 159 191 1
136 160 163 1
137 160 164 1
138 160 182 1
139 163 165 1
140 163 166 1
141 163 183 1
142 164 167 1
143 164 168 1
144 164 180 1
145 165 167 1
146 165 169 1
147 165 181 1
148 166 170 1
149 166 171 1
150 167 172 1
151 167 173 1
152 172 174 1
153 172 175 1
154 172 176 1
155 173 177 1
156 173 178 1
157 173 179 1
158 184 185 1
159 184 186 1
160 184 187 1
161 184 216 1
162 185 188 1
163 185 189 1
164 185 207 1
165 188 190 1
166 188 191 1
167 188 208 1
168 189 192 1
169 189 193 1
170 189 205 1
171 190 192 1
172 190 194 1
173 190 206 1
174 191 195 1
175 191 196 1
176 192 197 1
177 192 198 1
178 197 199 1
179 197 200 1
180 197 201 1
181 198 202 1
182 198 203 1
183 198 204 1
184 209 241 1
185 209 210 1
186 209 211 1
187 209 212 1
188 210 232 1
189 210 213 1
190 210 214 1
191 213 233 1
192 213 215 1
193 213 216 1
194 214 230 1
195 214 217 1
196 214 218 1
197 215 217 1
198 215 219 1
199 215 231 1
200 216 220 1
201 216 221 1
202 217 222 1
203 217 223 1
204 222 224 1
205 222 225 1
206 222 226 1
207 223 227 1
208 223 228 1
209 223 229 1
210 234 235 1
211 234 236 1
212 234 237 1
213 234 266 1
214 235 238 1
215 235 239 1
216 235 257 1
217 238 240 1
218 238 241 1
219 238 258 1
220 239 242 1
221 239 243 1
222 239 255 1
223 240 242 1
224 240 244 1
225 240 256 1
226 241 245 1
227 241 246 1
228 242 247 1
229 242 248 1
230 247 249 1
231 247 250 1
232 247 251 1
233 248 252 1
234 248 253 1
235 248 254 1
236 259 260 1
237 259 261 1
238 259 262 1
239 259 291 1
240 260 263 1
241 260 264 1
242 260 282 1
243 263 265 1
244 263 266 1
245 263 283 1
246 264 267 1
247 264 268 1
248 264 280 1
249 265 267 1
250 265 269 1
251 265 281 1
252 266 270 1
253 266 271 1
254 267 272 1
255 267 273 1
256 272 274 1
257 272 275 1
258 272 276 1
259 273 277 1
260 273 278 1
261 273 279 1
262 284 316 1
263 284 285 1
264 284 286 1
265 284 287 1
266 285 288 1
267 285 289 1
268 285 307 1
269 288 290 1
270 288 291 1
271 288 308 1
272 289 292 1
273 289 293 1
274 289 305 1
275 290 292 1
276 290 294 1
277 290 306 1
278 291 295 1
279 291 296 1
280 292 297 1
281 292 298 1
282 297 299 1
283 297 300 1
284 297 301 1
285 298 302 1
286 298 303 1
287 298 304 1
288 309 341 1
289 309 310 1
290 309 311 1
291 309 312 1
292 310 332 1
293 310 313 1
294 310 314 1
295 313 316 1
296 313 333 1
297 313 315 1
298 314 317 1
299 314 318 1
300 314 330 1
301 315 317 1
302 315 319 1
303 315 331 1
304 316 320 1
305 316 321 1
306 317 322 1
307 317 323 1
308 322 324 1
309 322 325 1
310 322 326 1
311 323 327 1
312 323 328 1
313 323 329 1
314 334 335 1
315 334 336 1
316 334 337 1
317 334 366 1
318 335 338 1
319 335 339 1
320 335 357 1
321 338 340 1
322 338 341 1
323 338 358 1
324 339 342 1
325 339 343 1
326 339 355 1
327 340 342 1
328 340 344 1
329 340 356 1
330 341 345 1
331 341 346 1
332 342 347 1
333 342 348 1
334 347 349 1
335 347 350 1
336 347 351 1
337 348 352 1
338 348 353 1
339 348 354 1
340 359 360 1
341 359 361 1
342 359 362 1
343 359 391 1
344 360 363 1
345 360 364 1
346 360 382 1
347 363 365 1
348 363 366 1
349 363 383 1
350 364 367 1
351 364 368 1
352 364 380 1
353 365 367 1
354 365 369 1
355 365 381 1
356 366 370 1
357 366 371 1
358 367 372 1
359 367 373 1
360 372 374 1
361 372 375 1
362 372 376 1
363 373 377 1
364 373 378 1
365 373 379 1
366 384 385 1
367 384 386 1
368 384 387 1
369 384 416 1
370 385 388 1
371 385 389 1
372 385 407 1
373 388 390 1
374 388 391 1
375 388 408 1
376 389 392 1
377 389 393 1
378 389 405 1
379 390 392 1
380 390 394 1
381 390 406 1
382 391 395 1
383 391 396 1
384 392 397 1
385 392 398 1
386 397 399 1
387 397 400 1
388 397 401 1
389 398 402 1
390 398 403 1
391 398 404 1
392 409 410 1
393 409 411 1
394 409 412 1
395 409 441 1
396 410 413 1
397 410 414 1
398 410 432 1
399 413 415 1
400 413 416 1
401 413 433 1
402 414 417 1
403 414 418 1
404 414 430 1
405 415 417 1
406 415 419 1
407 415 431 1
408 416 420 1
409 416 421 1
410 417 422 1
411 417 423 1
412 422 424 1
413 422 425 1
414 422 426 1
415 423 427 1
416 423 428 1
417 423 429 1
418 434 435 1
419 434 436 1
420 434 437 1
421 434 466 1
422 435 438 1
423 435 439 1
424 435 457 1
425 438 440 1
426 438 441 1
427 438 458 1
428 439 442 1
429 439 443 1
430 439 455 1
431 440 442 1
432 440 444 1
433 440 456 1
434 441 445 1
435 441 446 1
436 442 447 1
437 442 448 1
438 447 449 1
439 447 450 1
440 447 451 1
441 448 452 1
442 448 453 1
443 448 454 1
444 459 491 1
445 459 460 1
446 459 461 1
447 459 462 1
448 460 463 1
449 460 464 1
450 460 482 1
451 463 483 1
452 463 465 1
453 463 466 1
454 464 467 1
455 464 468 1
456 464 480 1
457 465 481 1
458 465 467 1
459 465 469 1
460 466 470 1
461 466 471 1
462 467 472 1
463 467 473 1
464 472 474 1
465 472 475 1
466 472 476 1
467 473 477 1
468 473 478 1
469 473 479 1
470 484 485 1
471 484 486 1
472 484 487 1
473 484 516 1
474 485 488 1
475 485 489 1
476 485 507 1
477 488 490 1
478 488 491 1
479 488 508 1
480 489 492 1
481 489 493 1
482 489 505 1
483 490 492 1
484 490 494 1
485 490 506 1
486 491 495 1
487 491 496 1
488 492 497 1
489 492 498 1
490 497 499 1
491 497 500 1
492 497 501 1
493 498 502 1
494 498 503 1
495 498 504 1
496 509 510 1
497 509 511 1
498 509 512 1
499 509 541 1
500 510 513 1
501 510 514 1
502 510 532 1
503 513 515 1
504 513 516 1
505 513 533 1
506 514 517 1
507 514 518 1
508 514 530 1
509 515 517 1
510 515 519 1
511 515 531 1
512 516 520 1
513 516 521 1
514 517 522 1
515 517 523 1
516 522 526 1
517 522 524 1
518 522 525 1
519 523 527 1
520 523 528 1
521 523 529 1
522 534 535 1
523 534 536 1
524 534 537 1
525 534 566 1
526 535 538 1
527 535 539 1
528 535 557 1
529 538 540 1
530 538 541 1
531 538 558 1
532 539 542 1
533 539 543 1
534 539 555 1
535 540 542 1
536 540 544 1
537 540 556 1
538 541 545 1
539 541 546 1
540 542 547 1
541 542 548 1
542 547 549 1
543 547 550 1
544 547 551 1
545 548 552 1
546 548 553 1
547 548 554 1
548 559 591 1
549 559 560 1
550 559 561 1
551 559 562 1
552 560 582 1
553 560 563 1
554 560 564 1
555 563 583 1
556 563 565 1
557 563 566 1
558 564 568 1
559 564 580 1
560 564 567 1
561 565 569 1
562 565 581 1
563 565 567 1
564 566 570 1
565 566 571 1
566 567 572 1
567 567 573 1
568 572 574 1
569 572 575 1
570 572 576 1
571 573 577 1
572 573 578 1
573 573 579 1
574 584 585 1
575 584 586 1
576 584 587 1
577 584 616 1
578 585 588 1
579 585 589 1
580 585 607 1
581 588 590 1
582 588 591 1
583 588 608 1
584 589 592 1
585 589 593 1
586 589 605 1
587 590 592 1
588 590 594 1
589 590 606 1
590 591 595 1
591 591 596 1
592 592 597 1
593 592 598 1
594 597 599 1
595 597 600 1
596 597 601 1
597 598 602 1
598 598 603 1
599 598 604 1
600 609 610 1
601 609 611 1
602 609 612 1
603 609 641 1
604 610 613 1
605 610 614 1
606 610 632 1
607 613 615 1
608 613 616 1
609 613 633 1
610 614 617 1
611 614 618 1
612 614 630 1
613 615 617 1
614 615 619 1
615 615 631 1
616 616 620 1
617 616 621 1
618 617 622 1
619 617 623 1
620 622 624 1
621 622 625 1
622 622 626 1
623 623 627 1
624 623 628 1
625 623 629 1
626 634 666 1
627 634 635 1
628 634 636 1
629 634 637 1
630 635 657 1
631 635 638 1
632 635 639 1
633 638 658 1
634 638 640 1
635 638 641 1
636 639 655 1
637 639 642 1
638 639 643 1
639 640 656 1
640 640 642 1
641 640 644 1
642 641 645 1
643 641 646 1
644 642 647 1
645 642 648 1
646 647 649 1
647 647 650 1
648 647 651 1
649 648 652 1
650 648 653 1
651 648 654 1
652 659 660 1
653 659 661 1
654 659 662 1
655 659 691 1
656 660 663 1
657 660 664 1
658 660 682 1
659 663 665 1
660 663 666 1
661 663 683 1
662 664 667 1
663 664 668 1
664 664 680 1
665 665 667 1
666 665 669 1
667 665 681 1
668 666 670 1
669 666 671 1
670 667 672 1
671 667 673 1
672 672 674 1
673 672 675 1
674 672 676 1
675 673 677 1
676 673 678 1
677 673 679 1
678 684 685 1
679 684 686 1
680 684 687 1
681 684 716 1
682 685 688 1
683 685 689 1
684 685 707 1
685 688 690 1
686 688 691 1
687 688 708 1
688 689 692 1
689 689 693 1
690 689 705 1
691 690 692 1
692 690 694 1
693 690 706 1
694 691 695 1
695 691 696 1
696 692 697 1
697 692 698 1
698 697 699 1
699 697 700 1
700 697 701 1
701 698 702 1
702 698 703 1
703 698 704 1
704 709 741 1
705 709 710 1
706 709 711 1
707 709 712 1
708 710 713 1
709 710 714 1
710 710 732 1
711 713 715 1
712 713 716 1
713 713 733 1
714 714 717 1
715 714 718 1
716 714 730 1
717 715 717 1
718 715 719 1
719 715 731 1
720 716 720 1
721 716 721 1
722 717 722 1
723 717 723 1
724 722 724 1
725 722 725 1
726 722 726 1
727 723 727 1
728 723 728 1
729 723 729 1
730 734 736 1
731 734 737 1
732 734 766 1
733 734 735 1
734 735 738 1
735 735 739 1
736 735 757 1
737 738 740 1
738 738 741 1
739 738 758 1
740 739 742 1
741 739 743 1
742 739 755 1
743 740 742 1
744 740 744 1
745 740 756 1
746 741 745 1
747 741 746 1
748 742 747 1
749 742 748 1
750 747 749 1
751 747 750 1
752 747 751 1
753 748 752 1
754 748 753 1
755 748 754 1
756 759 760 1
757 759 761 1
758 759 762 1
759 759 791 1
760 760 763 1
761 760 764 1
762 760 782 1
763 763 765 1
764 763 766 1
765 763 783 1
766 764 767 1
767 764 768 1
768 764 780 1
769 765 767 1
770 765 769 1
771 765 781 1
772 766 770 1
773 766 771 1
774 767 772 1
775 767 773 1
776 772 774 1
777 772 775 1
778 772 776 1
779 773 777 1
780 773 778 1
781 773 779 1
782 784 785 1
783 784 786 1
784 784 787 1
785 784 817 1
786 785 788 1
787 785 789 1
788 785 807 1
789 788 790 1
790 788 791 1
791 788 808 1
792 789 792 1
793 789 793 1
794 789 805 1
795 790 792 1
796 790 794 1
797 790 806 1
798 791 795 1
799 791 796 1
800 792 797 1
801 792 798 1
802 797 799 1
803 797 800 1
804 797 801 1
805 798 802 1
806 798 803 1
807 798 804 1
808 809 810 1
809 810 811 1
810 810 812 1
811 810 813 1
812 811 814 1
813 811 815 1
814 811 833 1
815 814 816 1
816 814 817 1
817 814 834 1
818 815 818 1
819 815 819 1
820 815 831 1
821 816 818 1
822 816 820 1
823 816 832 1
824 817 821 1
825 817 822 1
826 818 823 1
827 818 824 1
828 823 825 1
829 823 826 1
830 823 827 1
831 824 828 1
832 824 829 1
833 824 830 1
