@<TRIPOS>MOLECULE
"FuchsSandoff"  0.000000
250 292
SMALL
USER_CHARGES


@<TRIPOS>ATOM
1 C 0.2947 3.0632 -3.5238 C 0.0 **** 0.0
2 O -0.8031 3.8961 -3.9104 O 0.0 **** 0.0
3 C 0.7164 4.2495 2.0315 C 0.0 **** 0.0
4 C 0.0196 5.5279 1.5474 C 0.0 **** 0.0
5 C 6.5688 -0.6713 2.6411 C 0.0 **** 0.0
6 C 8.8409 7.1993 0.7879 C 0.0 **** 0.0
7 C 11.6956 7.2334 0.7876 C 0.0 **** 0.0
8 C 15.2638 13.3585 0.3273 C 0.0 **** 0.0
9 C 13.8492 13.3637 0.43 C 0.0 **** 0.0
10 C 9.6271 13.4073 0.6164 C 0.0 **** 0.0
11 C 17.3628 14.6137 0.0535 C 0.0 **** 0.0
12 C 21.4997 14.9015 -0.922 C 0.0 **** 0.0
13 C 25.6804 19.882 0.1548 C 0.0 **** 0.0
14 C 26.29 21.1544 0.338 C 0.0 **** 0.0
15 C 23.6506 16.1653 -0.418 C 0.0 **** 0.0
16 C 26.437 18.6546 0.0152 C 0.0 **** 0.0
17 C 26.5251 16.1138 -0.0713 C 0.0 **** 0.0
18 H -0.2533 0.9616 -3.2092 H 0.0 **** 0.0
19 H -0.6475 5.4178 -2.5023 H 0.0 **** 0.0
20 H -1.9135 5.1476 0.6499 H 0.0 **** 0.0
21 H 1.7664 9.3597 2.6643 H 0.0 **** 0.0
22 H 1.6357 2.5028 3.691 H 0.0 **** 0.0
23 H 8.1882 0.5383 -1.0131 H 0.0 **** 0.0
24 H 19.1032 6.6676 -1.7049 H 0.0 **** 0.0
25 H 13.3404 16.7908 0.3096 H 0.0 **** 0.0
26 H 22.4688 13.19 -0.0624 H 0.0 **** 0.0
27 H 6.9925 2.2147 -2.8124 H 0.0 **** 0.0
28 H 27.373 21.2121 0.3497 H 0.0 **** 0.0
29 C -0.1744 1.8931 -2.6286 C 0.0 **** 0.0
30 C 6.2785 -0.2289 -1.67 C 0.0 **** 0.0
31 C 10.9802 6.0066 0.825 C 0.0 **** 0.0
32 C 13.1254 9.6798 0.6974 C 0.0 **** 0.0
33 C 13.0874 7.2326 0.7948 C 0.0 **** 0.0
34 C 21.6033 9.8364 0.6576 C 0.0 **** 0.0
35 C 22.2419 13.5787 -1.0699 C 0.0 **** 0.0
36 C 19.3115 18.3959 0.0048 C 0.0 **** 0.0
37 C 17.8842 18.339 0.0634 C 0.0 **** 0.0
38 C 6.2707 0.168 -3.1602 C 0.0 **** 0.0
39 C 22.0533 20.9501 0.2778 C 0.0 **** 0.0
40 C 23.3348 23.4503 0.5786 C 0.0 **** 0.0
41 C 25.7704 17.4245 -0.067 C 0.0 **** 0.0
42 H 1.0493 3.6788 -2.9932 H 0.0 **** 0.0
43 H -1.6602 1.1504 1.3441 H 0.0 **** 0.0
44 H -0.5112 8.0727 1.9649 H 0.0 **** 0.0
45 H 3.6793 2.3097 0.1151 H 0.0 **** 0.0
46 H 8.549 -1.0211 0.8261 H 0.0 **** 0.0
47 H 20.9601 7.0542 0.6591 H 0.0 **** 0.0
48 H 19.6657 10.6094 1.3101 H 0.0 **** 0.0
49 H 6.3099 16.2872 1.4667 H 0.0 **** 0.0
50 H 23.2037 13.7143 -1.5848 H 0.0 **** 0.0
51 H 21.6338 12.5973 -2.9227 H 0.0 **** 0.0
52 H 7.6451 -1.3837 -3.8425 H 0.0 **** 0.0
53 H 15.1132 5.9823 2.1395 H 0.0 **** 0.0
54 H 24.2171 15.264 -0.6362 H 0.0 **** 0.0
55 H 29.6505 17.5361 0.3472 H 0.0 **** 0.0
56 C -1.5463 2.207 -1.9983 C 0.0 **** 0.0
57 C 4.3452 4.9654 1.0762 C 0.0 **** 0.0
58 C 3.244 7.5733 0.9211 C 0.0 **** 0.0
59 O 5.3889 8.4999 0.6507 O 0.0 **** 0.0
60 C 2.8191 2.8115 1.9737 C 0.0 **** 0.0
61 C 4.0334 2.4459 1.1586 C 0.0 **** 0.0
62 C 2.5315 2.2205 3.1363 C 0.0 **** 0.0
63 C 7.1584 4.6814 0.9482 C 0.0 **** 0.0
64 C 6.3209 3.5477 1.0542 C 0.0 **** 0.0
65 C 13.8582 10.8999 0.5925 C 0.0 **** 0.0
66 C 8.9013 12.227 0.6289 C 0.0 **** 0.0
67 C 7.6414 14.6543 1.0234 C 0.0 **** 0.0
68 C 13.8769 15.8414 0.3134 C 0.0 **** 0.0
69 C 18.0354 15.8889 -0.015 C 0.0 **** 0.0
70 C 19.8809 22.0762 0.3776 C 0.0 **** 0.0
71 C 23.4781 21.0099 0.2967 C 0.0 **** 0.0
72 O 28.5787 19.6905 -0.3618 O 0.0 **** 0.0
73 H -2.5669 3.8993 -1.135 H 0.0 **** 0.0
74 H 3.8627 1.5267 4.6686 H 0.0 **** 0.0
75 H 8.292 -1.0736 -1.7468 H 0.0 **** 0.0
76 H 19.8346 10.397 -0.4315 H 0.0 **** 0.0
77 H 22.5227 9.6563 -1.3277 H 0.0 **** 0.0
78 H 6.8694 15.3814 -2.7131 H 0.0 **** 0.0
79 H 6.4839 17.1825 -1.0439 H 0.0 **** 0.0
80 H 19.5348 13.647 -2.4282 H 0.0 **** 0.0
81 H 16.0519 19.5077 0.1947 H 0.0 **** 0.0
82 C -1.5686 3.6761 -1.5474 C 0.0 **** 0.0
83 C 2.6193 8.9297 0.7126 C 0.0 **** 0.0
84 C 7.681 -0.4378 -1.088 C 0.0 **** 0.0
85 C 10.976 8.4669 0.746 C 0.0 **** 0.0
86 C 15.9967 12.1339 0.3343 C 0.0 **** 0.0
87 C 17.9923 8.6121 0.0752 C 0.0 **** 0.0
88 O 15.6563 5.9804 1.3363 O 0.0 **** 0.0
89 C 19.2131 20.8547 0.2427 C 0.0 **** 0.0
90 C 24.1232 22.2657 0.453 C 0.0 **** 0.0
91 C 27.8906 16.2359 0.594 C 0.0 **** 0.0
92 H -2.2981 2.0936 -2.7929 H 0.0 **** 0.0
93 H 5.8762 1.8054 -1.0112 H 0.0 **** 0.0
94 H 13.601 6.2769 0.7654 H 0.0 **** 0.0
95 H 16.7133 7.1413 -0.8739 H 0.0 **** 0.0
96 H 16.7391 7.5563 2.1288 H 0.0 **** 0.0
97 H 8.2963 15.5021 -1.6679 H 0.0 **** 0.0
98 H 5.9313 -1.8689 -3.8769 H 0.0 **** 0.0
99 H 21.3707 24.3077 0.6446 H 0.0 **** 0.0
100 C -1.3367 4.5927 -2.7772 C 0.0 **** 0.0
101 C -0.4378 2.743 0.5686 C 0.0 **** 0.0
102 O -0.2153 3.1643 1.9263 O 0.0 **** 0.0
103 C 0.9775 6.6881 1.4086 C 0.0 **** 0.0
104 C 6.7618 8.4026 0.6955 C 0.0 **** 0.0
105 C 4.4439 0.6253 2.81 C 0.0 **** 0.0
106 C 7.5753 -1.0605 0.3047 C 0.0 **** 0.0
107 C 13.8286 8.4249 0.7913 C 0.0 **** 0.0
108 C 15.9277 9.6417 0.7414 C 0.0 **** 0.0
109 C 16.2041 7.292 1.1931 C 0.0 **** 0.0
110 C 22.1653 8.997 -0.5225 C 0.0 **** 0.0
111 C 24.3438 17.3747 -0.1465 C 0.0 **** 0.0
112 C 28.6664 17.3414 -0.1023 C 0.0 **** 0.0
113 H 0.7468 2.706 -4.459 H 0.0 **** 0.0
114 H 7.0497 -1.6441 2.8308 H 0.0 **** 0.0
115 H 6.8189 10.5032 0.5859 H 0.0 **** 0.0
116 H 20.0858 5.4758 -0.8483 H 0.0 **** 0.0
117 H 17.9563 11.2948 0.0736 H 0.0 **** 0.0
118 H 19.99 12.6245 0.3957 H 0.0 **** 0.0
119 H 20.6642 14.6761 1.0319 H 0.0 **** 0.0
120 H 21.1068 15.1752 -1.922 H 0.0 **** 0.0
121 H 5.2363 0.4737 -3.4012 H 0.0 **** 0.0
122 H 23.8514 24.4045 0.7004 H 0.0 **** 0.0
123 C -0.5331 3.9339 -0.431 C 0.0 **** 0.0
124 C -1.7083 1.91 0.5509 C 0.0 **** 0.0
125 C -1.8961 1.2529 -0.8278 C 0.0 **** 0.0
126 C 0.5312 7.9397 1.6608 C 0.0 **** 0.0
127 C 4.9467 3.6682 1.1026 C 0.0 **** 0.0
128 C 5.1563 -0.6372 3.2221 C 0.0 **** 0.0
129 C 9.6089 5.9783 0.8351 C 0.0 **** 0.0
130 C 11.6961 9.6891 0.6916 C 0.0 **** 0.0
131 C 10.9761 10.9292 0.6358 C 0.0 **** 0.0
132 C 13.138 12.1388 0.5248 C 0.0 **** 0.0
133 C 20.0833 9.9428 0.5435 C 0.0 **** 0.0
134 N 21.1876 8.0713 -1.1157 N 0.0 **** 0.0
135 O 9.038 14.6494 0.6528 O 0.0 **** 0.0
136 C 13.1492 14.6154 0.4098 C 0.0 **** 0.0
137 C 17.3871 12.2099 0.1185 C 0.0 **** 0.0
138 C 20.2757 14.7148 -0.0054 C 0.0 **** 0.0
139 C 19.4291 15.9571 -0.0864 C 0.0 **** 0.0
140 C 6.6228 -1.0294 -4.0499 C 0.0 **** 0.0
141 C 23.5893 18.5721 -0.0047 C 0.0 **** 0.0
142 H -2.2797 5.0326 -3.1302 H 0.0 **** 0.0
143 H -0.6781 5.8019 2.3524 H 0.0 **** 0.0
144 H -0.8351 6.0792 -0.3926 H 0.0 **** 0.0
145 H 3.3649 9.7248 0.8394 H 0.0 **** 0.0
146 H 0.8534 10.0385 1.3162 H 0.0 **** 0.0
147 H 7.3346 -2.1382 0.2204 H 0.0 **** 0.0
148 H 6.7723 2.5551 1.0965 H 0.0 **** 0.0
149 H 17.7383 5.1492 -0.0873 H 0.0 **** 0.0
150 H 7.5774 14.426 2.1004 H 0.0 **** 0.0
151 H 5.4115 15.826 -0.6865 H 0.0 **** 0.0
152 H 11.2141 15.5524 0.4763 H 0.0 **** 0.0
153 H 19.2562 11.9824 -1.9178 H 0.0 **** 0.0
154 H 17.2074 21.6881 0.3327 H 0.0 **** 0.0
155 H 27.7517 16.4872 1.6582 H 0.0 **** 0.0
156 C -0.87 5.2306 0.3067 C 0.0 **** 0.0
157 C 2.9394 5.1576 1.1942 C 0.0 **** 0.0
158 C 2.049 3.9393 1.3432 C 0.0 **** 0.0
159 C 1.4175 9.1475 1.6346 C 0.0 **** 0.0
160 C 6.5422 -0.3866 1.16 C 0.0 **** 0.0
161 C 5.519 0.7801 -0.8049 C 0.0 **** 0.0
162 C 15.2813 10.898 0.543 C 0.0 **** 0.0
163 C 7.4234 9.6103 0.6437 C 0.0 **** 0.0
164 C 19.4154 8.5596 0.6273 C 0.0 **** 0.0
165 C 6.4706 16.1356 -0.7072 C 0.0 **** 0.0
166 C 15.2394 15.8178 0.213 C 0.0 **** 0.0
167 O 15.9042 17.0284 0.1094 O 0.0 **** 0.0
168 C 19.8577 12.8795 -1.707 C 0.0 **** 0.0
169 C 20.0774 17.2015 -0.1129 C 0.0 **** 0.0
170 C 17.7817 20.7639 0.2482 C 0.0 **** 0.0
171 C 21.2829 22.1515 0.4011 C 0.0 **** 0.0
172 C 24.2554 19.8205 0.1545 C 0.0 **** 0.0
173 C 27.9233 18.6706 -0.1419 C 0.0 **** 0.0
174 H 0.5692 1.7141 -1.8354 H 0.0 **** 0.0
175 H 0.4436 4.0635 -0.9239 H 0.0 **** 0.0
176 H 0.4063 2.0906 0.2707 H 0.0 **** 0.0
177 H -2.5597 2.5694 0.7842 H 0.0 **** 0.0
178 H 2.2693 8.9808 -0.3353 H 0.0 **** 0.0
179 H 4.5797 -1.5098 2.8549 H 0.0 **** 0.0
180 H 4.4557 0.7688 -1.1035 H 0.0 **** 0.0
181 H 5.743 -1.193 -1.586 H 0.0 **** 0.0
182 H 21.8605 9.3599 1.6173 H 0.0 **** 0.0
183 H 5.9076 13.4824 0.5527 H 0.0 **** 0.0
184 H 6.1697 13.3209 -1.7558 H 0.0 **** 0.0
185 H 21.5617 11.5572 -1.4961 H 0.0 **** 0.0
186 H 19.2981 22.9945 0.4771 H 0.0 **** 0.0
187 H 26.0341 23.2607 0.6257 H 0.0 **** 0.0
188 H 25.9262 15.3513 0.446 H 0.0 **** 0.0
189 H 28.4312 15.2783 0.5474 H 0.0 **** 0.0
190 C 2.4002 6.4426 1.1462 C 0.0 **** 0.0
191 C 4.6079 7.3806 0.8466 C 0.0 **** 0.0
192 C 6.6211 5.9659 0.8823 C 0.0 **** 0.0
193 S 8.878 4.375 0.8951 S 0.0 **** 0.0
194 C 15.2521 8.4452 0.8921 C 0.0 **** 0.0
195 C 9.5507 10.9428 0.6441 C 0.0 **** 0.0
196 C 11.7192 12.1456 0.5686 C 0.0 **** 0.0
197 O 17.2972 9.5983 0.8894 O 0.0 **** 0.0
198 C 17.2578 7.2493 0.0777 C 0.0 **** 0.0
199 C 11.044 13.4034 0.5489 C 0.0 **** 0.0
200 C 7.2301 15.2319 -1.6848 C 0.0 **** 0.0
201 C 11.7571 14.6086 0.4803 C 0.0 **** 0.0
202 C 18.0697 13.406 -0.0181 C 0.0 **** 0.0
203 C 21.3609 12.5761 -1.8564 C 0.0 **** 0.0
204 C 22.2755 16.1081 -0.4676 C 0.0 **** 0.0
205 C 21.5117 17.2731 -0.1792 C 0.0 **** 0.0
206 C 17.1402 19.5594 0.1695 C 0.0 **** 0.0
207 C 19.9759 19.6489 0.115 C 0.0 **** 0.0
208 C 25.5353 22.2997 0.4831 C 0.0 **** 0.0
209 H -1.2576 0.3563 -0.8928 H 0.0 **** 0.0
210 H 2.7663 0.3035 4.0764 H 0.0 **** 0.0
211 H 18.5708 5.9635 1.2401 H 0.0 **** 0.0
212 H 19.3363 8.2677 1.6882 H 0.0 **** 0.0
213 H 20.6277 8.5591 -1.816 H 0.0 **** 0.0
214 H 7.8922 16.7603 0.8345 H 0.0 **** 0.0
215 H 6.5764 -0.7584 -5.1158 H 0.0 **** 0.0
216 H 28.8507 17.0584 -1.1553 H 0.0 **** 0.0
217 C 5.2019 6.0988 0.9438 C 0.0 **** 0.0
218 C 4.7073 1.17 1.6011 C 0.0 **** 0.0
219 C 3.3929 1.1522 3.7356 C 0.0 **** 0.0
220 C 9.5528 8.4497 0.7363 C 0.0 **** 0.0
221 C 8.828 9.688 0.6749 C 0.0 **** 0.0
222 C 18.2447 6.0815 0.1926 C 0.0 **** 0.0
223 C 20.2984 7.495 -0.1061 C 0.0 **** 0.0
224 C 6.9589 13.5472 0.2383 C 0.0 **** 0.0
225 C 7.0685 13.749 -1.288 C 0.0 **** 0.0
226 C 15.9683 14.5883 0.2011 C 0.0 **** 0.0
227 C 19.5529 13.3745 -0.2815 C 0.0 **** 0.0
228 H 1.8379 3.6121 0.3101 H 0.0 **** 0.0
229 H 5.1815 -0.7156 4.3205 H 0.0 **** 0.0
230 H 7.1929 0.0938 3.1453 H 0.0 **** 0.0
231 H 18.024 9.0146 -0.9546 H 0.0 **** 0.0
232 H 22.0634 10.8374 0.6663 H 0.0 **** 0.0
233 H 23.0346 8.4101 -0.1799 H 0.0 **** 0.0
234 C 7.4258 7.1685 0.785 C 0.0 **** 0.0
235 C 5.629 0.4878 0.6731 C 0.0 **** 0.0
236 C 19.4554 6.3637 -0.7025 C 0.0 **** 0.0
237 O 7.525 12.2851 0.6425 O 0.0 **** 0.0
238 C 7.07 16.0386 0.7111 C 0.0 **** 0.0
239 C 17.2766 17.0704 0.0399 C 0.0 **** 0.0
240 C 7.1967 1.3518 -3.4639 C 0.0 **** 0.0
241 C 21.3945 19.7067 0.1317 C 0.0 **** 0.0
242 C 21.9664 23.3978 0.5503 C 0.0 **** 0.0
243 C 22.1665 18.5108 -0.0105 C 0.0 **** 0.0
244 H -2.9356 0.9037 -0.9206 H 0.0 **** 0.0
245 H 0.9167 4.356 3.1075 H 0.0 **** 0.0
246 H 11.5525 5.0765 0.854 H 0.0 **** 0.0
247 H 7.9285 13.166 -1.6489 H 0.0 **** 0.0
248 H 7.0753 1.6777 -4.5079 H 0.0 **** 0.0
249 H 8.2504 1.0652 -3.323 H 0.0 **** 0.0
250 H 26.6518 15.7586 -1.1116 H 0.0 **** 0.0
@<TRIPOS>BOND
1 8 9 2
2 13 14 2
3 3 4 1
4 13 16 1
5 1 2 1
6 14 28 1
7 35 50 1
8 36 37 2
9 38 30 1
10 60 61 1
11 60 62 2
12 63 64 2
13 102 101 1
14 130 131 2
15 125 124 1
16 138 139 1
17 180 161 1
18 167 166 1
19 157 158 1
20 199 201 2
21 196 199 2
22 204 205 2
23 224 225 1
24 220 221 2
25 241 243 2
26 240 248 1
27 240 249 1
28 168 153 1
29 84 106 1
30 15 111 2
31 175 123 1
32 102 3 1
33 70 186 1
34 111 41 2
35 43 124 1
36 58 83 1
37 158 60 1
38 140 98 1
39 229 128 1
40 203 168 1
41 148 64 1
42 156 123 1
43 236 223 1
44 76 133 1
45 61 127 1
46 184 225 1
47 24 236 1
48 103 190 1
49 162 65 2
50 232 34 1
51 233 110 1
52 32 65 2
53 9 136 2
54 6 129 1
55 8 226 2
56 85 130 2
57 112 173 1
58 31 7 2
59 227 138 1
60 228 158 1
61 146 159 1
62 149 222 1
63 130 32 2
64 57 217 2
65 203 185 1
66 71 172 2
67 16 41 2
68 136 201 2
69 160 106 1
70 167 239 1
71 79 165 1
72 89 70 2
73 105 128 1
74 38 140 1
75 17 91 1
76 127 64 2
77 213 134 1
78 92 56 1
79 142 100 1
80 39 71 2
81 204 15 2
82 19 100 1
83 77 110 1
84 162 86 1
85 211 222 1
86 132 196 2
87 135 67 1
88 157 57 2
89 173 72 2
90 38 240 1
91 202 137 2
92 240 27 1
93 108 197 1
94 234 192 1
95 88 109 1
96 107 194 2
97 179 128 1
98 239 69 2
99 195 66 2
100 242 40 2
101 131 195 2
102 108 162 2
103 39 171 2
104 35 203 1
105 203 51 1
106 137 117 1
107 41 17 1
108 156 20 1
109 90 71 2
110 34 110 1
111 40 90 2
112 152 201 1
113 91 155 1
114 160 235 2
115 115 163 1
116 219 62 1
117 91 189 1
118 12 35 1
119 198 222 1
120 14 208 2
121 21 159 1
122 246 31 1
123 86 8 2
124 3 158 1
125 239 37 2
126 125 209 1
127 6 220 2
128 191 58 2
129 171 242 2
130 100 2 1
131 217 192 2
132 190 157 2
133 1 29 1
134 87 164 1
135 69 11 1
136 221 163 2
137 194 109 1
138 89 207 2
139 87 198 1
140 234 6 2
141 45 61 1
142 197 87 1
143 88 53 1
144 7 33 2
145 12 120 1
146 5 160 1
147 49 238 1
148 247 225 1
149 169 36 2
150 37 206 2
151 226 166 2
152 36 207 2
153 168 80 1
154 132 9 2
155 85 220 2
156 227 118 1
157 74 219 1
158 181 30 1
159 22 62 1
160 104 234 2
161 7 85 2
162 161 30 1
163 217 191 2
164 93 161 1
165 212 164 1
166 110 134 1
167 4 143 1
168 103 126 2
169 194 108 2
170 107 33 2
171 225 200 1
172 151 165 1
173 61 218 1
174 18 29 1
175 97 200 1
176 182 34 1
177 16 173 1
178 230 5 1
179 165 238 1
180 200 165 1
181 202 11 2
182 63 193 1
183 1 42 1
184 1 113 1
185 3 245 1
186 4 156 1
187 4 103 1
188 10 135 1
189 10 199 2
190 12 204 1
191 15 54 1
192 17 188 1
193 17 250 1
194 23 84 1
195 25 68 1
196 29 56 1
197 30 84 1
198 32 107 1
199 35 26 1
200 38 121 1
201 40 122 1
202 44 126 1
203 46 106 1
204 47 223 1
205 48 133 1
206 56 82 1
207 57 127 2
208 59 104 1
209 65 132 2
210 66 10 2
211 66 237 1
212 67 224 1
213 67 238 1
214 69 139 2
215 73 82 1
216 75 84 1
217 78 200 1
218 82 100 1
219 82 123 1
220 83 159 1
221 90 208 2
222 91 112 1
223 94 33 1
224 95 198 1
225 96 109 1
226 101 124 1
227 104 163 2
228 105 219 1
229 112 216 1
230 112 55 1
231 114 5 1
232 116 236 1
233 123 101 1
234 125 56 1
235 125 244 1
236 128 5 1
237 129 193 1
238 129 31 2
239 131 196 2
240 133 34 1
241 136 68 2
242 137 86 2
243 138 12 1
244 138 119 1
245 139 169 2
246 140 215 1
247 140 52 1
248 141 111 2
249 141 243 2
250 145 83 1
251 147 106 1
252 150 67 1
253 156 144 1
254 159 126 1
255 164 133 1
256 166 68 2
257 169 205 2
258 170 89 2
259 170 154 1
260 171 70 2
261 172 13 2
262 172 141 2
263 174 29 1
264 176 101 1
265 177 124 1
266 178 83 1
267 183 224 1
268 190 58 2
269 191 59 1
270 192 63 2
271 198 109 1
272 202 227 1
273 205 243 2
274 206 170 2
275 206 81 1
276 207 241 2
277 208 187 1
278 210 219 1
279 214 238 1
280 218 235 1
281 218 105 2
282 221 195 1
283 222 236 1
284 223 134 1
285 223 164 1
286 224 237 1
287 226 11 2
288 227 168 1
289 231 87 1
290 235 161 1
291 241 39 2
292 242 99 1
In VMDInterface::Run(), Cannot find the path of the VMD program. You have three options:
1. Provide the correct location of VMD explicitly when calling VMDInterface::Run(vmdlocation).
2. Write the location of VMD into an environment variable "VMD".
3. Call vmd yourself by "vmd.exe -e vmd.tcl", where "vmd.tcl" is the vmd script this program has created for you.
