@<TRIPOS>MOLECULE
Molecule 2  0.000000
9 7
SMALL
USER_CHARGES


@<TRIPOS>ATOM
1 O -4.1765 1.6785 0.0041 O 0.0 **** 0.0
2 C -7.5621 0.5706 -0.0801 C 0.0 **** 0.0
3 C -6.2314 0.5473 0.0097 C 0.0 **** 0.0
4 C -5.4047 1.7814 -0.0888 C 0.0 **** 0.0
5 O -5.9618 3.0631 -0.2836 O 0.0 **** 0.0
6 Na -4.2102 4.6869 -0.3698 Na 0.0 **** 0.0
7 H -8.073 1.4849 -0.2264 H 0.0 **** 0.0
8 H -8.1113 -0.334 -0.0042 H 0.0 **** 0.0
9 H -5.7447 -0.3841 0.1565 H 0.0 **** 0.0
@<TRIPOS>BOND
1 1 4 2
2 2 3 2
3 2 7 1
4 2 8 1
5 3 4 1
6 3 9 1
7 4 5 1
