@<TRIPOS>MOLECULE
Molecule 1
102 115
SMALL
USER_CHARGES


@<TRIPOS>ATOM
1 C1 -3.881544 3.656284 -0.406209 C 0.0 **** 0.0
2 C2 -2.717636 2.899667 -0.475051 C 0.0 **** 0.0
3 C3 -2.824183 1.519657 -0.411131 C 0.0 **** 0.0
4 C4 -4.035522 0.878256 -0.280949 C 0.0 **** 0.0
5 C5 -5.204654 1.63573 -0.216739 C 0.0 **** 0.0
6 C6 -5.116972 3.024256 -0.27873 C 0.0 **** 0.0
7 C7 -3.766968 -0.619672 -0.242262 C 0.0 **** 0.0
8 C8 -2.41106 -0.815295 -0.361666 C 0.0 **** 0.0
9 C9 -1.705385 0.561155 -0.473031 C 0.0 **** 0.0
10 C10 -1.838203 -2.095894 -0.368223 C 0.0 **** 0.0
11 C11 -2.654453 -3.24447 -0.255851 C 0.0 **** 0.0
12 C12 -4.042459 -3.008815 -0.128261 C 0.0 **** 0.0
13 C13 -4.604734 -1.717681 -0.115675 C 0.0 **** 0.0
14 C14 -6.094822 -1.514776 0.033468 C 0.0 **** 0.0
15 C15 -6.710099 -2.573312 0.852364 C 0.0 **** 0.0
16 C16 -6.465704 -3.855429 0.171253 C 0.0 **** 0.0
17 C17 -4.946037 -4.115365 -0.004348 C 0.0 **** 0.0
18 C18 -4.447276 -5.406752 -0.070248 C 0.0 **** 0.0
19 C19 -3.075242 -5.64513 -0.205248 C 0.0 **** 0.0
20 C20 -2.114767 -4.576904 -0.269944 C 0.0 **** 0.0
21 C21 -0.667133 -4.676431 -0.35172 C 0.0 **** 0.0
22 C22 0.067238 -3.495216 -0.474837 C 0.0 **** 0.0
23 C23 -0.462803 -2.225269 -0.492284 C 0.0 **** 0.0
24 C24 -2.709076 -7.101661 -0.303159 C 0.0 **** 0.0
25 C25 -3.754398 -8.20993 -0.433971 C 0.0 **** 0.0
26 C26 -5.090996 -7.90478 -0.251774 C 0.0 **** 0.0
27 C27 -5.477809 -6.541886 0.023642 C 0.0 **** 0.0
28 C28 -6.075473 -8.894377 -0.33711 C 0.0 **** 0.0
29 C29 -5.705708 -10.198731 -0.610836 C 0.0 **** 0.0
30 C30 -4.370223 -10.517758 -0.808365 C 0.0 **** 0.0
31 C31 -3.384867 -9.534584 -0.726129 C 0.0 **** 0.0
32 C32 -4.006121 -11.898408 -1.104344 C 0.0 **** 0.0
33 C33 -5.048035 -12.964726 -1.187947 C 0.0 **** 0.0
34 C34 -6.21381 -12.615923 -0.268366 C 0.0 **** 0.0
35 C35 -6.77518 -11.258627 -0.694963 C 0.0 **** 0.0
36 C36 -2.054411 -9.912337 -0.945984 C 0.0 **** 0.0
37 C37 -1.713378 -11.231542 -1.241234 C 0.0 **** 0.0
38 C38 -2.679294 -12.222195 -1.316847 C 0.0 **** 0.0
39 C39 1.505119 -3.695572 -0.58356 C 0.0 **** 0.0
40 C40 1.618831 -5.071196 -0.457004 C 0.0 **** 0.0
41 C41 0.372552 -5.675753 -0.322409 C 0.0 **** 0.0
42 C42 0.429664 -7.066307 -0.163942 C 0.0 **** 0.0
43 C43 1.63574 -7.758809 -0.153511 C 0.0 **** 0.0
44 C44 2.850112 -7.110148 -0.30192 C 0.0 **** 0.0
45 C45 2.84425 -5.736073 -0.456478 C 0.0 **** 0.0
46 C46 4.054205 -5.05809 -0.59989 C 0.0 **** 0.0
47 C47 5.255616 -5.752397 -0.589795 C 0.0 **** 0.0
48 C48 5.248923 -7.137709 -0.433168 C 0.0 **** 0.0
49 C49 4.04652 -7.825168 -0.286922 C 0.0 **** 0.0
50 C50 4.015494 -9.214763 -0.121624 C 0.0 **** 0.0
51 C51 2.793188 -9.857408 0.030567 C 0.0 **** 0.0
52 C52 1.610587 -9.132949 0.017407 C 0.0 **** 0.0
53 O53 -3.811668 5.0418 -0.466538 O 0.0 **** 0.0
54 C54 -6.366003 3.843383 -0.207581 C 0.0 **** 0.0
55 O55 0.397103 -1.07223 -0.620908 O 0.0 **** 0.0
56 C56 6.537608 -4.933041 -0.749181 C 0.0 **** 0.0
57 C57 7.831865 -5.762799 -0.902626 C 0.0 **** 0.0
58 O58 -0.391085 -11.574354 -1.470635 O 0.0 **** 0.0
59 O59 -7.474394 -8.651272 -0.156681 O 0.0 **** 0.0
60 O60 5.178529 -10.025263 -0.095194 O 0.0 **** 0.0
61 H1 -1.77122 3.366428 -0.574514 H 0.0 **** 0.0
62 H2 -6.144135 1.187948 -0.123655 H 0.0 **** 0.0
63 H3 -0.983012 0.721349 0.339141 H 0.0 **** 0.0
64 H4 -1.131753 0.658552 -1.404768 H 0.0 **** 0.0
65 H5 -6.293687 -0.559034 0.483739 H 0.0 **** 0.0
66 H6 -6.55343 -1.535461 -0.964372 H 0.0 **** 0.0
67 H7 -6.255132 -2.584387 1.852658 H 0.0 **** 0.0
68 H8 -7.791333 -2.399359 0.938346 H 0.0 **** 0.0
69 H9 -6.959838 -4.648196 0.734882 H 0.0 **** 0.0
70 H10 -6.922532 -3.807072 -0.827214 H 0.0 **** 0.0
71 H11 -1.977607 -7.219618 -1.104183 H 0.0 **** 0.0
72 H12 -6.347681 -6.3212 -0.606047 H 0.0 **** 0.0
73 H13 -5.425882 -12.999943 -2.218664 H 0.0 **** 0.0
74 H14 -4.605627 -13.941156 -0.946716 H 0.0 **** 0.0
75 H15 -6.994031 -13.38548 -0.347254 H 0.0 **** 0.0
76 H16 -5.858805 -12.555426 0.770688 H 0.0 **** 0.0
77 H17 -7.101745 -11.338919 -1.740594 H 0.0 **** 0.0
78 H18 -7.639664 -10.966575 -0.084507 H 0.0 **** 0.0
79 H19 -1.281438 -9.203347 -0.900066 H 0.0 **** 0.0
80 H20 -2.403987 -13.221381 -1.539324 H 0.0 **** 0.0
81 H21 1.894451 -3.338632 -1.546772 H 0.0 **** 0.0
82 H22 2.06415 -3.150132 0.189315 H 0.0 **** 0.0
83 H23 -0.373133 -7.61266 -0.038741 H 0.0 **** 0.0
84 H24 4.082389 -4.007646 -0.717867 H 0.0 **** 0.0
85 H25 6.146688 -7.676675 -0.419592 H 0.0 **** 0.0
86 H26 2.764044 -10.909354 0.158808 H 0.0 **** 0.0
87 H27 0.684122 -9.630439 0.136301 H 0.0 **** 0.0
88 H28 -2.866582 5.318998 -0.55602 H 0.0 **** 0.0
89 H29 -6.157696 4.812139 0.268285 H 0.0 **** 0.0
90 H30 -7.157937 3.285626 0.312505 H 0.0 **** 0.0
91 H31 -6.700468 4.040362 -1.235554 H 0.0 **** 0.0
92 H32 1.347087 -1.251127 -0.69863 H 0.0 **** 0.0
93 H33 6.407982 -4.26118 -1.609229 H 0.0 **** 0.0
94 H34 8.690118 -5.084094 -1.008627 H 0.0 **** 0.0
95 H35 7.755678 -6.400158 -1.795196 H 0.0 **** 0.0
96 H36 7.972113 -6.393001 -0.011813 H 0.0 **** 0.0
97 H37 0.167479 -10.778304 -1.404827 H 0.0 **** 0.0
98 H38 -7.699289 -7.722091 0.037176 H 0.0 **** 0.0
99 H39 5.999935 -9.515043 -0.206314 H 0.0 **** 0.0
100 H40 -2.132795 -7.334776 0.596413 H 0.0 **** 0.0
101 H41 -5.908668 -6.523452 1.034727 H 0.0 **** 0.0
102 H42 6.625083 -4.279278 0.129847 H 0.0 **** 0.0
@<TRIPOS>BOND
1 1 6 2
2 1 53 1
3 1 2 2
4 2 61 1
5 2 3 2
6 3 4 2
7 3 9 1
8 4 5 2
9 4 7 1
10 5 62 1
11 5 6 2
12 7 8 2
13 8 9 1
14 10 23 2
15 10 8 2
16 10 11 2
17 11 20 2
18 11 12 2
19 12 13 2
20 12 17 2
21 13 7 2
22 13 14 1
23 14 65 1
24 14 66 1
25 14 15 1
26 15 67 1
27 15 68 1
28 15 16 1
29 16 69 1
30 16 70 1
31 16 17 1
32 17 18 2
33 18 19 2
34 18 27 1
35 19 20 2
36 19 24 1
37 20 21 1
38 21 22 2
39 21 41 1
40 22 23 2
41 22 39 1
42 23 55 1
43 24 25 1
44 24 71 1
45 25 26 2
46 25 31 2
47 26 27 1
48 26 28 2
49 27 72 1
50 28 29 2
51 28 59 1
52 29 30 2
53 29 35 1
54 30 31 2
55 30 32 1
56 31 36 2
57 32 33 1
58 32 38 2
59 33 73 1
60 33 74 1
61 33 34 1
62 34 75 1
63 34 76 1
64 34 35 1
65 35 77 1
66 35 78 1
67 36 79 1
68 36 37 2
69 37 38 2
70 37 58 1
71 38 80 1
72 39 40 2
73 39 81 1
74 39 82 1
75 40 41 2
76 40 45 2
77 41 42 2
78 42 43 2
79 42 83 1
80 43 44 2
81 43 52 2
82 44 45 2
83 44 49 2
84 45 46 2
85 46 84 1
86 46 47 2
87 47 48 2
88 47 56 1
89 48 85 1
90 48 49 2
91 49 50 2
92 50 51 2
93 50 60 1
94 51 86 1
95 51 52 2
96 52 87 1
97 53 88 1
98 54 6 1
99 54 89 1
100 54 90 1
101 54 91 1
102 55 92 1
103 56 93 1
104 56 57 1
105 57 94 1
106 57 95 1
107 57 96 1
108 58 97 1
109 59 98 1
110 60 99 1
111 63 9 1
112 64 9 1
113 100 24 1
114 101 27 1
115 102 56 1
